data_image0
_chemical_formula_structural       CuAuCu2AuCuAuCuAu2CuAuCuAuCu3Au2CuAuCuAuCuAuCuAuCu3AuCuAuCuAuCu2AuCuAuCuAuCuAuCuAuCuAuCuAuCu2Au2CuAuCuAu2CuAuCuAuCuAuCuAuCuAu2CuAuCuAuCuAuCuAuCuAu2Cu2AuCuAu2CuAuCuAuCuAuCuAuCuAuCuAuCuAuCu3AuCuAuCu2AuCuAuCuAuCuAuCuAuCu2AuCuAuCuAuCuAuCuAuCuAuCuAuCuAuCuAuCuAu2CuAuCuAuCuAuCuAuCu3Au2Cu2AuCu2Au3CuAuCuAuCu2Au3CuAuCuAuCuAuCu2AuCuAuCuAuCuAu5CuAuCu3AuCuAuCuAuCuAuCu2Au2CuAu3Cu2AuCuAuCuAu4CuAu3CuAuCu6AuCuAuCuAuCu3AuCuAuCuAuCu4AuCu2Au2CuAu3Cu3Au3CuAuCuAuCu2AuCu3AuCuAuCuAuCuAu2CuAuCu4Au2CuAuCuAuCu2AuCu2Au3Cu2AuCuAuCuAuCuAu2Cu2AuCuAuCuAu2CuAuCuAuCuAuCu2Au3CuAuCuAu2CuAuCuAuCuAuCu3AuCuAuCu4AuCu2AuCu2Au2Cu2AuCuAu2Cu2AuCuAuCuAuCuAuCu2AuCuAuCuAu4CuAuCu3AuCuAu2CuAuCuAu2CuAu2CuAu2CuAu2CuAuCuAuCuAuCu2Au2CuAuCuAuCuAuCuAu2CuAuCuAuCuAuCu4AuCuAuCuAuCuAu2CuAuCuAu2CuAuCu3AuCu2AuCuAuCuAuCuAuCuAuCuAuCuAu2CuAuCuAuCuAuCuAuCuAu2Cu2AuCuAu2CuAuCuAuCuAu2CuAuCu2Au3CuAuCuAuCu2AuCuAu3CuAuCuAuCuAu2CuAuCuAuCuAuCuAu3CuAu3CuAuCuAu2CuAuCuAuCu4AuCu2AuCuAu3CuAu2CuAuCu2Au2CuAuCuAuCuAu2CuAuCu3AuCuAuCuAuCu4AuCu2Au2CuAuCuAu2CuAuCuAuCu2AuCuAuCuAuCuAu2CuAu2Cu2AuCu2AuCu2Au2CuAu2Cu2AuCuAuCuAuCuAuCuAuCuAuCuAu2CuAuCuAu2CuAuCuAu2CuAuCuAuCuAu2CuAuCu3AuCuAu2CuAuCu2Au3Cu4AuCuAuCuAuCuAuCuAu4Cu3AuCu2AuCuAuCu2AuCuAuCu2AuCuAuCuAu3CuAu2CuAuCuAu2CuAuCuAu2CuAuCuAuCuAuCuAu3Cu4Au2Cu2AuCu2AuCuAu2CuAuCuAu2CuAuCuAuCu3AuCu2AuCu2Au3Cu3Au2CuAuCuAuCuAuCuAuCuAuCuAu2CuAu3CuAu2Cu3Au2CuAuCuAuCu3Au4CuAu2Cu3AuCu3AuCuAuCuAuCuAuCuAuCuAu3CuAuCu2AuCu3AuCu2Au2Cu2AuCu2AuCuAuCuAuCu2AuCuAuCuAu2CuAu2CuAu2CuAuCuAuCuAuCuAuCu2AuCuAu3CuAuCuAuCuAuCuAuCu3AuCu2AuCuAu2CuAuCuAu2CuAuCuAuCuAu3CuAuCu2AuCuAuCuAuCuAuCuAu2CuAuCuAuCuAuCuAuCuAuCuAuCuAuCuAuCuAu2CuAuCu2AuCuAuCu2AuCuAuCuAu3CuAuCuAuCu3Au2CuAuCuAu2CuAuCuAuCuAuCuAuCuAuCuAuCuAu2Cu2AuCu2AuCuAu2CuAuCuAu2Cu3Au2Cu2Au3CuAu3Cu2AuCuAu2CuAuCuAu2Cu2AuCu3AuCuAuCu2AuCuAuCuAuCuAuCu2AuCu4Au4CuAu2Cu2Au2Cu3Au2CuAuCu2AuCuAu2CuAu2CuAu2CuAuCu2Au2CuAuCuAuCuAuCuAuCuAu2CuAuCu3Au3Cu2AuCu2AuCu2AuCuAu2CuAu2Cu2AuCuAu2Cu2AuCuAuCuAu2Cu2AuCuAuCuAuCuAuCuAu2CuAu2CuAuCuAu2CuAuCuAuCuAuCuAu2CuAuCuAuCuAuCuAu2CuAuCuAuCuAuCu3AuCuAu2CuAuCu2AuCuAuCuAuCuAu2Cu2AuCuAuCu2AuCuAuCuAuCuAuCu2AuCuAuCuAuCuAu3CuAuCuAu3CuAu2CuAuCu2AuCuAuCu3Au2CuAu2CuAuCu2AuCuAu2CuAuCuAuCuAuCuAu2Cu3AuCuAu2Cu2AuCuAuCu4AuCuAuCuAuCu2AuCuAu2CuAuCu2AuCuAuCuAuCu2AuCuAu2CuAuCuAu3CuAuCu2AuCuAu2Cu2AuCuAu3CuAuCu2AuCuAu2Cu3Au2Cu3Au2Cu3AuCuAu2CuAuCu2AuCuAu2CuAu2Cu2AuCuAu2CuAuCu3AuCuAuCu2Au2CuAuCuAuCuAu2CuAu2CuAuCuAuCuAu2CuAu4Cu2AuCuAuCuAuCuAuCuAu2CuAu2CuAuCuAuCuAuCuAu2CuAuCuAuCuAuCuAuCu2AuCuAuCuAuCuAu3CuAuCu2AuCu2Au2CuAuCuAuCuAuCuAuCu4AuCuAuCu2AuCuAuCu2AuCu2AuCu2AuCuAu2CuAuCu2Au2CuAuCuAuCuAuCu2AuCu3AuCuAuCuAuCuAuCuAuCuAu2Cu3Au4CuAuCuAu2CuAu2Cu2AuCu2AuCuAuCuAuCuAuCuAuCuAuCuAu2Cu2AuCu2AuCuAuCuAuCuAuCuAuCuAu2CuAuCuAuCu2AuCuAu2CuAu2CuAuCuAuCuAu2Cu2AuCuAu2CuAu2CuAuCuAuCuAuCuAuCu2AuCuAuCu2Au2CuAuCu6AuCu2AuCu2AuCu2AuCu2Au2CuAuCu3AuCu2AuCu2AuCuAuCuAuCuAuCu2AuCu2AuCuAuCuAu2CuAuCuAuCuAu2CuAu2CuAu2Cu2AuCuAuCuAuCuAuCuAuCuAu2CuAuCuAuCu2AuCuAuCuAuCuAu2CuAu2CuAuCuAuCu2AuCuAuCuAuCu2Au2CuAuCu2Au2CuAuCuAuCuAuCuAuCuAuCu2AuCuAuCuAu2CuAuCuAuCuAu2CuAuCuAuCuAu2Cu3Au2CuAuCuAu3CuAuCuAuCu3AuCuAuCuAuCuAuCu2AuCu4AuCuAuCuAuCuAuCuAu2CuAuCuAu2Cu2AuCuAu2CuAu2CuAu2Cu5AuCu2AuCuAuCuAuCuAuCuAuCuAu2CuAu2CuAuCuAuCuAuCuAuCuAuCuAuCuAuCuAuCuAu3CuAuCuAuCuAuCu2Au2CuAuCuAu2CuAuCu4AuCu2AuCu2AuCu2AuCu3AuCuAu2Cu2AuCu2AuCuAuCuAuCuAu2CuAu2Cu2Au2CuAu2CuAuCuAuCuAuCuAu3CuAuCu2AuCu2Au3CuAu2CuAu2CuAu2CuAuCu2AuCuAuCuAu2Cu2AuCuAu3CuAuCuAuCuAu2CuAuCuAuCu3AuCuAuCuAu3CuAuCu3AuCuAuCuAu4CuAu2CuAuCuAuCuAu2Cu2AuCuAuCu2AuCu2AuCu2Au3CuAuCuAuCuAuCuAuCu3AuCuAuCu2AuCuAu3CuAuCu2AuCu2AuCu2AuCuAu2Cu2AuCu2AuCuAu2CuAuCuAuCu2AuCuAuCuAuCuAuCuAu3CuAuCuAu2CuAuCuAuCuAuCuAu3CuAu4CuAuCuAu3CuAuCu2Au2CuAuCu3AuCuAuCuAu2CuAuCuAuCuAuCuAuCuAuCu4AuCuAuCuAuCuAuCuAuCu2AuCuAuCuAuCuAu3CuAuCuAuCuAuCuAu5CuAuCuAuCu2AuCu2Au2CuAuCuAu2CuAuCuAuCuAuCuAuCuAuCuAuCu2AuCuAuCuAuCu2Au2CuAuCuAuCuAuCu2Au2CuAuCuAuCuAuCuAuCuAuCuAu2CuAuCuAuCu2Au2CuAu2CuAuCuAuCuAu2CuAuCuAuCu2AuCu4AuCuAu2CuAu2CuAuCuAuCuAuCu2Au4CuAu3CuAu3Cu3AuCuAuCuAuCuAuCu2AuCuAuCuAu2CuAuCuAuCuAuCuAuCuAuCuAu4CuAuCuAu4Cu2AuCuAuCuAu2Cu3AuCu4AuCuAuCuAu2Cu2AuCu3AuCuAuCuAuCuAuCu2AuCu2AuCu2AuCuAuCuAuCuAuCu2AuCu2Au2CuAuCuAuCuAuCuAu3Cu2Au2CuAu2CuAu2Cu2AuCuAuCuAu2Cu4Au2CuAuCuAuCuAuCuAuCuAu2CuAuCu5AuCuAu2Cu2AuCuAuCu2Au2Cu2AuCuAu3CuAuCuAuCuAuCuAu2CuAuCuAuCuAuCuAuCuAuCuAu2
_chemical_formula_sum              "Cu1250 Au1250"
_cell_length_a       150.0
_cell_length_b       150.0
_cell_length_c       3.0
_cell_angle_alpha    90.0
_cell_angle_beta     90.0
_cell_angle_gamma    90.0

_space_group_name_H-M_alt    "P 1"
_space_group_IT_number       1

loop_
  _space_group_symop_operation_xyz
  'x, y, z'

loop_
  _atom_site_type_symbol
  _atom_site_label
  _atom_site_symmetry_multiplicity
  _atom_site_fract_x
  _atom_site_fract_y
  _atom_site_fract_z
  _atom_site_occupancy
  Cu  Cu1       1.0  0.0  0.0  0.0  1.0000
  Au  Au1       1.0  0.0  0.02  0.0  1.0000
  Cu  Cu2       1.0  0.0  0.04  0.0  1.0000
  Cu  Cu3       1.0  0.0  0.060000000000000005  0.0  1.0000
  Au  Au2       1.0  0.0  0.08  0.0  1.0000
  Cu  Cu4       1.0  0.0  0.1  0.0  1.0000
  Au  Au3       1.0  0.0  0.12000000000000001  0.0  1.0000
  Cu  Cu5       1.0  0.0  0.14000000000000004  0.0  1.0000
  Au  Au4       1.0  0.0  0.16  0.0  1.0000
  Au  Au5       1.0  0.0  0.18000000000000002  0.0  1.0000
  Cu  Cu6       1.0  0.0  0.2  0.0  1.0000
  Au  Au6       1.0  0.0  0.22  0.0  1.0000
  Cu  Cu7       1.0  0.0  0.24000000000000002  0.0  1.0000
  Au  Au7       1.0  0.0  0.26  0.0  1.0000
  Cu  Cu8       1.0  0.0  0.2800000000000001  0.0  1.0000
  Cu  Cu9       1.0  0.0  0.30000000000000004  0.0  1.0000
  Cu  Cu10      1.0  0.0  0.32  0.0  1.0000
  Au  Au8       1.0  0.0  0.3400000000000001  0.0  1.0000
  Au  Au9       1.0  0.0  0.36000000000000004  0.0  1.0000
  Cu  Cu11      1.0  0.0  0.38  0.0  1.0000
  Au  Au10      1.0  0.0  0.4  0.0  1.0000
  Cu  Cu12      1.0  0.0  0.42000000000000004  0.0  1.0000
  Au  Au11      1.0  0.0  0.44  0.0  1.0000
  Cu  Cu13      1.0  0.0  0.46  0.0  1.0000
  Au  Au12      1.0  0.0  0.48000000000000004  0.0  1.0000
  Cu  Cu14      1.0  0.0  0.5  0.0  1.0000
  Au  Au13      1.0  0.0  0.52  0.0  1.0000
  Cu  Cu15      1.0  0.0  0.54  0.0  1.0000
  Cu  Cu16      1.0  0.0  0.5600000000000002  0.0  1.0000
  Cu  Cu17      1.0  0.0  0.5800000000000001  0.0  1.0000
  Au  Au14      1.0  0.0  0.6000000000000001  0.0  1.0000
  Cu  Cu18      1.0  0.0  0.62  0.0  1.0000
  Au  Au15      1.0  0.0  0.64  0.0  1.0000
  Cu  Cu19      1.0  0.0  0.66  0.0  1.0000
  Au  Au16      1.0  0.0  0.6800000000000002  0.0  1.0000
  Cu  Cu20      1.0  0.0  0.7000000000000001  0.0  1.0000
  Cu  Cu21      1.0  0.0  0.7200000000000001  0.0  1.0000
  Au  Au17      1.0  0.0  0.7400000000000001  0.0  1.0000
  Cu  Cu22      1.0  0.0  0.76  0.0  1.0000
  Au  Au18      1.0  0.0  0.78  0.0  1.0000
  Cu  Cu23      1.0  0.0  0.8  0.0  1.0000
  Au  Au19      1.0  0.0  0.82  0.0  1.0000
  Cu  Cu24      1.0  0.0  0.8400000000000001  0.0  1.0000
  Au  Au20      1.0  0.0  0.8600000000000001  0.0  1.0000
  Cu  Cu25      1.0  0.0  0.88  0.0  1.0000
  Au  Au21      1.0  0.0  0.9  0.0  1.0000
  Cu  Cu26      1.0  0.0  0.92  0.0  1.0000
  Au  Au22      1.0  0.0  0.9400000000000001  0.0  1.0000
  Cu  Cu27      1.0  0.0  0.9600000000000001  0.0  1.0000
  Au  Au23      1.0  0.0  0.9800000000000001  0.0  1.0000
  Cu  Cu28      1.0  0.02  0.0  0.0  1.0000
  Cu  Cu29      1.0  0.02  0.02  0.0  1.0000
  Au  Au24      1.0  0.02  0.04  0.0  1.0000
  Au  Au25      1.0  0.02  0.060000000000000005  0.0  1.0000
  Cu  Cu30      1.0  0.02  0.08  0.0  1.0000
  Au  Au26      1.0  0.02  0.1  0.0  1.0000
  Cu  Cu31      1.0  0.02  0.12000000000000001  0.0  1.0000
  Au  Au27      1.0  0.02  0.14000000000000004  0.0  1.0000
  Au  Au28      1.0  0.02  0.16  0.0  1.0000
  Cu  Cu32      1.0  0.02  0.18000000000000002  0.0  1.0000
  Au  Au29      1.0  0.02  0.2  0.0  1.0000
  Cu  Cu33      1.0  0.02  0.22  0.0  1.0000
  Au  Au30      1.0  0.02  0.24000000000000002  0.0  1.0000
  Cu  Cu34      1.0  0.02  0.26  0.0  1.0000
  Au  Au31      1.0  0.02  0.2800000000000001  0.0  1.0000
  Cu  Cu35      1.0  0.02  0.30000000000000004  0.0  1.0000
  Au  Au32      1.0  0.02  0.32  0.0  1.0000
  Cu  Cu36      1.0  0.02  0.3400000000000001  0.0  1.0000
  Au  Au33      1.0  0.02  0.36000000000000004  0.0  1.0000
  Au  Au34      1.0  0.02  0.38  0.0  1.0000
  Cu  Cu37      1.0  0.02  0.4  0.0  1.0000
  Au  Au35      1.0  0.02  0.42000000000000004  0.0  1.0000
  Cu  Cu38      1.0  0.02  0.44  0.0  1.0000
  Au  Au36      1.0  0.02  0.46  0.0  1.0000
  Cu  Cu39      1.0  0.02  0.48000000000000004  0.0  1.0000
  Au  Au37      1.0  0.02  0.5  0.0  1.0000
  Cu  Cu40      1.0  0.02  0.52  0.0  1.0000
  Au  Au38      1.0  0.02  0.54  0.0  1.0000
  Cu  Cu41      1.0  0.02  0.5600000000000002  0.0  1.0000
  Au  Au39      1.0  0.02  0.5800000000000001  0.0  1.0000
  Au  Au40      1.0  0.02  0.6000000000000001  0.0  1.0000
  Cu  Cu42      1.0  0.02  0.62  0.0  1.0000
  Cu  Cu43      1.0  0.02  0.64  0.0  1.0000
  Au  Au41      1.0  0.02  0.66  0.0  1.0000
  Cu  Cu44      1.0  0.02  0.6800000000000002  0.0  1.0000
  Au  Au42      1.0  0.02  0.7000000000000001  0.0  1.0000
  Au  Au43      1.0  0.02  0.7200000000000001  0.0  1.0000
  Cu  Cu45      1.0  0.02  0.7400000000000001  0.0  1.0000
  Au  Au44      1.0  0.02  0.76  0.0  1.0000
  Cu  Cu46      1.0  0.02  0.78  0.0  1.0000
  Au  Au45      1.0  0.02  0.8  0.0  1.0000
  Cu  Cu47      1.0  0.02  0.82  0.0  1.0000
  Au  Au46      1.0  0.02  0.8400000000000001  0.0  1.0000
  Cu  Cu48      1.0  0.02  0.8600000000000001  0.0  1.0000
  Au  Au47      1.0  0.02  0.88  0.0  1.0000
  Cu  Cu49      1.0  0.02  0.9  0.0  1.0000
  Au  Au48      1.0  0.02  0.92  0.0  1.0000
  Cu  Cu50      1.0  0.02  0.9400000000000001  0.0  1.0000
  Au  Au49      1.0  0.02  0.9600000000000001  0.0  1.0000
  Cu  Cu51      1.0  0.02  0.9800000000000001  0.0  1.0000
  Au  Au50      1.0  0.04  0.0  0.0  1.0000
  Cu  Cu52      1.0  0.04  0.02  0.0  1.0000
  Cu  Cu53      1.0  0.04  0.04  0.0  1.0000
  Cu  Cu54      1.0  0.04  0.060000000000000005  0.0  1.0000
  Au  Au51      1.0  0.04  0.08  0.0  1.0000
  Cu  Cu55      1.0  0.04  0.1  0.0  1.0000
  Au  Au52      1.0  0.04  0.12000000000000001  0.0  1.0000
  Cu  Cu56      1.0  0.04  0.14000000000000004  0.0  1.0000
  Cu  Cu57      1.0  0.04  0.16  0.0  1.0000
  Au  Au53      1.0  0.04  0.18000000000000002  0.0  1.0000
  Cu  Cu58      1.0  0.04  0.2  0.0  1.0000
  Au  Au54      1.0  0.04  0.22  0.0  1.0000
  Cu  Cu59      1.0  0.04  0.24000000000000002  0.0  1.0000
  Au  Au55      1.0  0.04  0.26  0.0  1.0000
  Cu  Cu60      1.0  0.04  0.2800000000000001  0.0  1.0000
  Au  Au56      1.0  0.04  0.30000000000000004  0.0  1.0000
  Cu  Cu61      1.0  0.04  0.32  0.0  1.0000
  Au  Au57      1.0  0.04  0.3400000000000001  0.0  1.0000
  Cu  Cu62      1.0  0.04  0.36000000000000004  0.0  1.0000
  Cu  Cu63      1.0  0.04  0.38  0.0  1.0000
  Au  Au58      1.0  0.04  0.4  0.0  1.0000
  Cu  Cu64      1.0  0.04  0.42000000000000004  0.0  1.0000
  Au  Au59      1.0  0.04  0.44  0.0  1.0000
  Cu  Cu65      1.0  0.04  0.46  0.0  1.0000
  Au  Au60      1.0  0.04  0.48000000000000004  0.0  1.0000
  Cu  Cu66      1.0  0.04  0.5  0.0  1.0000
  Au  Au61      1.0  0.04  0.52  0.0  1.0000
  Cu  Cu67      1.0  0.04  0.54  0.0  1.0000
  Au  Au62      1.0  0.04  0.5600000000000002  0.0  1.0000
  Cu  Cu68      1.0  0.04  0.5800000000000001  0.0  1.0000
  Au  Au63      1.0  0.04  0.6000000000000001  0.0  1.0000
  Cu  Cu69      1.0  0.04  0.62  0.0  1.0000
  Au  Au64      1.0  0.04  0.64  0.0  1.0000
  Cu  Cu70      1.0  0.04  0.66  0.0  1.0000
  Au  Au65      1.0  0.04  0.6800000000000002  0.0  1.0000
  Cu  Cu71      1.0  0.04  0.7000000000000001  0.0  1.0000
  Au  Au66      1.0  0.04  0.7200000000000001  0.0  1.0000
  Cu  Cu72      1.0  0.04  0.7400000000000001  0.0  1.0000
  Au  Au67      1.0  0.04  0.76  0.0  1.0000
  Au  Au68      1.0  0.04  0.78  0.0  1.0000
  Cu  Cu73      1.0  0.04  0.8  0.0  1.0000
  Au  Au69      1.0  0.04  0.82  0.0  1.0000
  Cu  Cu74      1.0  0.04  0.8400000000000001  0.0  1.0000
  Au  Au70      1.0  0.04  0.8600000000000001  0.0  1.0000
  Cu  Cu75      1.0  0.04  0.88  0.0  1.0000
  Au  Au71      1.0  0.04  0.9  0.0  1.0000
  Cu  Cu76      1.0  0.04  0.92  0.0  1.0000
  Au  Au72      1.0  0.04  0.9400000000000001  0.0  1.0000
  Cu  Cu77      1.0  0.04  0.9600000000000001  0.0  1.0000
  Cu  Cu78      1.0  0.04  0.9800000000000001  0.0  1.0000
  Cu  Cu79      1.0  0.060000000000000005  0.0  0.0  1.0000
  Au  Au73      1.0  0.060000000000000005  0.02  0.0  1.0000
  Au  Au74      1.0  0.060000000000000005  0.04  0.0  1.0000
  Cu  Cu80      1.0  0.060000000000000005  0.060000000000000005  0.0  1.0000
  Cu  Cu81      1.0  0.060000000000000005  0.08  0.0  1.0000
  Au  Au75      1.0  0.060000000000000005  0.1  0.0  1.0000
  Cu  Cu82      1.0  0.060000000000000005  0.12000000000000001  0.0  1.0000
  Cu  Cu83      1.0  0.060000000000000005  0.14000000000000004  0.0  1.0000
  Au  Au76      1.0  0.060000000000000005  0.16  0.0  1.0000
  Au  Au77      1.0  0.060000000000000005  0.18000000000000002  0.0  1.0000
  Au  Au78      1.0  0.060000000000000005  0.2  0.0  1.0000
  Cu  Cu84      1.0  0.060000000000000005  0.22  0.0  1.0000
  Au  Au79      1.0  0.060000000000000005  0.24000000000000002  0.0  1.0000
  Cu  Cu85      1.0  0.060000000000000005  0.26  0.0  1.0000
  Au  Au80      1.0  0.060000000000000005  0.2800000000000001  0.0  1.0000
  Cu  Cu86      1.0  0.060000000000000005  0.30000000000000004  0.0  1.0000
  Cu  Cu87      1.0  0.060000000000000005  0.32  0.0  1.0000
  Au  Au81      1.0  0.060000000000000005  0.3400000000000001  0.0  1.0000
  Au  Au82      1.0  0.060000000000000005  0.36000000000000004  0.0  1.0000
  Au  Au83      1.0  0.060000000000000005  0.38  0.0  1.0000
  Cu  Cu88      1.0  0.060000000000000005  0.4  0.0  1.0000
  Au  Au84      1.0  0.060000000000000005  0.42000000000000004  0.0  1.0000
  Cu  Cu89      1.0  0.060000000000000005  0.44  0.0  1.0000
  Au  Au85      1.0  0.060000000000000005  0.46  0.0  1.0000
  Cu  Cu90      1.0  0.060000000000000005  0.48000000000000004  0.0  1.0000
  Au  Au86      1.0  0.060000000000000005  0.5  0.0  1.0000
  Cu  Cu91      1.0  0.060000000000000005  0.52  0.0  1.0000
  Cu  Cu92      1.0  0.060000000000000005  0.54  0.0  1.0000
  Au  Au87      1.0  0.060000000000000005  0.5600000000000002  0.0  1.0000
  Cu  Cu93      1.0  0.060000000000000005  0.5800000000000001  0.0  1.0000
  Au  Au88      1.0  0.060000000000000005  0.6000000000000001  0.0  1.0000
  Cu  Cu94      1.0  0.060000000000000005  0.62  0.0  1.0000
  Au  Au89      1.0  0.060000000000000005  0.64  0.0  1.0000
  Cu  Cu95      1.0  0.060000000000000005  0.66  0.0  1.0000
  Au  Au90      1.0  0.060000000000000005  0.6800000000000002  0.0  1.0000
  Au  Au91      1.0  0.060000000000000005  0.7000000000000001  0.0  1.0000
  Au  Au92      1.0  0.060000000000000005  0.7200000000000001  0.0  1.0000
  Au  Au93      1.0  0.060000000000000005  0.7400000000000001  0.0  1.0000
  Au  Au94      1.0  0.060000000000000005  0.76  0.0  1.0000
  Cu  Cu96      1.0  0.060000000000000005  0.78  0.0  1.0000
  Au  Au95      1.0  0.060000000000000005  0.8  0.0  1.0000
  Cu  Cu97      1.0  0.060000000000000005  0.82  0.0  1.0000
  Cu  Cu98      1.0  0.060000000000000005  0.8400000000000001  0.0  1.0000
  Cu  Cu99      1.0  0.060000000000000005  0.8600000000000001  0.0  1.0000
  Au  Au96      1.0  0.060000000000000005  0.88  0.0  1.0000
  Cu  Cu100     1.0  0.060000000000000005  0.9  0.0  1.0000
  Au  Au97      1.0  0.060000000000000005  0.92  0.0  1.0000
  Cu  Cu101     1.0  0.060000000000000005  0.9400000000000001  0.0  1.0000
  Au  Au98      1.0  0.060000000000000005  0.9600000000000001  0.0  1.0000
  Cu  Cu102     1.0  0.060000000000000005  0.9800000000000001  0.0  1.0000
  Au  Au99      1.0  0.08  0.0  0.0  1.0000
  Cu  Cu103     1.0  0.08  0.02  0.0  1.0000
  Cu  Cu104     1.0  0.08  0.04  0.0  1.0000
  Au  Au100     1.0  0.08  0.060000000000000005  0.0  1.0000
  Au  Au101     1.0  0.08  0.08  0.0  1.0000
  Cu  Cu105     1.0  0.08  0.1  0.0  1.0000
  Au  Au102     1.0  0.08  0.12000000000000001  0.0  1.0000
  Au  Au103     1.0  0.08  0.14000000000000004  0.0  1.0000
  Au  Au104     1.0  0.08  0.16  0.0  1.0000
  Cu  Cu106     1.0  0.08  0.18000000000000002  0.0  1.0000
  Cu  Cu107     1.0  0.08  0.2  0.0  1.0000
  Au  Au105     1.0  0.08  0.22  0.0  1.0000
  Cu  Cu108     1.0  0.08  0.24000000000000002  0.0  1.0000
  Au  Au106     1.0  0.08  0.26  0.0  1.0000
  Cu  Cu109     1.0  0.08  0.2800000000000001  0.0  1.0000
  Au  Au107     1.0  0.08  0.30000000000000004  0.0  1.0000
  Au  Au108     1.0  0.08  0.32  0.0  1.0000
  Au  Au109     1.0  0.08  0.3400000000000001  0.0  1.0000
  Au  Au110     1.0  0.08  0.36000000000000004  0.0  1.0000
  Cu  Cu110     1.0  0.08  0.38  0.0  1.0000
  Au  Au111     1.0  0.08  0.4  0.0  1.0000
  Au  Au112     1.0  0.08  0.42000000000000004  0.0  1.0000
  Au  Au113     1.0  0.08  0.44  0.0  1.0000
  Cu  Cu111     1.0  0.08  0.46  0.0  1.0000
  Au  Au114     1.0  0.08  0.48000000000000004  0.0  1.0000
  Cu  Cu112     1.0  0.08  0.5  0.0  1.0000
  Cu  Cu113     1.0  0.08  0.52  0.0  1.0000
  Cu  Cu114     1.0  0.08  0.54  0.0  1.0000
  Cu  Cu115     1.0  0.08  0.5600000000000002  0.0  1.0000
  Cu  Cu116     1.0  0.08  0.5800000000000001  0.0  1.0000
  Cu  Cu117     1.0  0.08  0.6000000000000001  0.0  1.0000
  Au  Au115     1.0  0.08  0.62  0.0  1.0000
  Cu  Cu118     1.0  0.08  0.64  0.0  1.0000
  Au  Au116     1.0  0.08  0.66  0.0  1.0000
  Cu  Cu119     1.0  0.08  0.6800000000000002  0.0  1.0000
  Au  Au117     1.0  0.08  0.7000000000000001  0.0  1.0000
  Cu  Cu120     1.0  0.08  0.7200000000000001  0.0  1.0000
  Cu  Cu121     1.0  0.08  0.7400000000000001  0.0  1.0000
  Cu  Cu122     1.0  0.08  0.76  0.0  1.0000
  Au  Au118     1.0  0.08  0.78  0.0  1.0000
  Cu  Cu123     1.0  0.08  0.8  0.0  1.0000
  Au  Au119     1.0  0.08  0.82  0.0  1.0000
  Cu  Cu124     1.0  0.08  0.8400000000000001  0.0  1.0000
  Au  Au120     1.0  0.08  0.8600000000000001  0.0  1.0000
  Cu  Cu125     1.0  0.08  0.88  0.0  1.0000
  Cu  Cu126     1.0  0.08  0.9  0.0  1.0000
  Cu  Cu127     1.0  0.08  0.92  0.0  1.0000
  Cu  Cu128     1.0  0.08  0.9400000000000001  0.0  1.0000
  Au  Au121     1.0  0.08  0.9600000000000001  0.0  1.0000
  Cu  Cu129     1.0  0.08  0.9800000000000001  0.0  1.0000
  Cu  Cu130     1.0  0.1  0.0  0.0  1.0000
  Au  Au122     1.0  0.1  0.02  0.0  1.0000
  Au  Au123     1.0  0.1  0.04  0.0  1.0000
  Cu  Cu131     1.0  0.1  0.060000000000000005  0.0  1.0000
  Au  Au124     1.0  0.1  0.08  0.0  1.0000
  Au  Au125     1.0  0.1  0.1  0.0  1.0000
  Au  Au126     1.0  0.1  0.12000000000000001  0.0  1.0000
  Cu  Cu132     1.0  0.1  0.14000000000000004  0.0  1.0000
  Cu  Cu133     1.0  0.1  0.16  0.0  1.0000
  Cu  Cu134     1.0  0.1  0.18000000000000002  0.0  1.0000
  Au  Au127     1.0  0.1  0.2  0.0  1.0000
  Au  Au128     1.0  0.1  0.22  0.0  1.0000
  Au  Au129     1.0  0.1  0.24000000000000002  0.0  1.0000
  Cu  Cu135     1.0  0.1  0.26  0.0  1.0000
  Au  Au130     1.0  0.1  0.2800000000000001  0.0  1.0000
  Cu  Cu136     1.0  0.1  0.30000000000000004  0.0  1.0000
  Au  Au131     1.0  0.1  0.32  0.0  1.0000
  Cu  Cu137     1.0  0.1  0.3400000000000001  0.0  1.0000
  Cu  Cu138     1.0  0.1  0.36000000000000004  0.0  1.0000
  Au  Au132     1.0  0.1  0.38  0.0  1.0000
  Cu  Cu139     1.0  0.1  0.4  0.0  1.0000
  Cu  Cu140     1.0  0.1  0.42000000000000004  0.0  1.0000
  Cu  Cu141     1.0  0.1  0.44  0.0  1.0000
  Au  Au133     1.0  0.1  0.46  0.0  1.0000
  Cu  Cu142     1.0  0.1  0.48000000000000004  0.0  1.0000
  Au  Au134     1.0  0.1  0.5  0.0  1.0000
  Cu  Cu143     1.0  0.1  0.52  0.0  1.0000
  Au  Au135     1.0  0.1  0.54  0.0  1.0000
  Cu  Cu144     1.0  0.1  0.5600000000000002  0.0  1.0000
  Au  Au136     1.0  0.1  0.5800000000000001  0.0  1.0000
  Au  Au137     1.0  0.1  0.6000000000000001  0.0  1.0000
  Cu  Cu145     1.0  0.1  0.62  0.0  1.0000
  Au  Au138     1.0  0.1  0.64  0.0  1.0000
  Cu  Cu146     1.0  0.1  0.66  0.0  1.0000
  Cu  Cu147     1.0  0.1  0.6800000000000002  0.0  1.0000
  Cu  Cu148     1.0  0.1  0.7000000000000001  0.0  1.0000
  Cu  Cu149     1.0  0.1  0.7200000000000001  0.0  1.0000
  Au  Au139     1.0  0.1  0.7400000000000001  0.0  1.0000
  Au  Au140     1.0  0.1  0.76  0.0  1.0000
  Cu  Cu150     1.0  0.1  0.78  0.0  1.0000
  Au  Au141     1.0  0.1  0.8  0.0  1.0000
  Cu  Cu151     1.0  0.1  0.82  0.0  1.0000
  Au  Au142     1.0  0.1  0.8400000000000001  0.0  1.0000
  Cu  Cu152     1.0  0.1  0.8600000000000001  0.0  1.0000
  Cu  Cu153     1.0  0.1  0.88  0.0  1.0000
  Au  Au143     1.0  0.1  0.9  0.0  1.0000
  Cu  Cu154     1.0  0.1  0.92  0.0  1.0000
  Cu  Cu155     1.0  0.1  0.9400000000000001  0.0  1.0000
  Au  Au144     1.0  0.1  0.9600000000000001  0.0  1.0000
  Au  Au145     1.0  0.1  0.9800000000000001  0.0  1.0000
  Au  Au146     1.0  0.12000000000000001  0.0  0.0  1.0000
  Cu  Cu156     1.0  0.12000000000000001  0.02  0.0  1.0000
  Cu  Cu157     1.0  0.12000000000000001  0.04  0.0  1.0000
  Au  Au147     1.0  0.12000000000000001  0.060000000000000005  0.0  1.0000
  Cu  Cu158     1.0  0.12000000000000001  0.08  0.0  1.0000
  Au  Au148     1.0  0.12000000000000001  0.1  0.0  1.0000
  Cu  Cu159     1.0  0.12000000000000001  0.12000000000000001  0.0  1.0000
  Au  Au149     1.0  0.12000000000000001  0.14000000000000004  0.0  1.0000
  Cu  Cu160     1.0  0.12000000000000001  0.16  0.0  1.0000
  Au  Au150     1.0  0.12000000000000001  0.18000000000000002  0.0  1.0000
  Au  Au151     1.0  0.12000000000000001  0.2  0.0  1.0000
  Cu  Cu161     1.0  0.12000000000000001  0.22  0.0  1.0000
  Cu  Cu162     1.0  0.12000000000000001  0.24000000000000002  0.0  1.0000
  Au  Au152     1.0  0.12000000000000001  0.26  0.0  1.0000
  Cu  Cu163     1.0  0.12000000000000001  0.2800000000000001  0.0  1.0000
  Au  Au153     1.0  0.12000000000000001  0.30000000000000004  0.0  1.0000
  Cu  Cu164     1.0  0.12000000000000001  0.32  0.0  1.0000
  Au  Au154     1.0  0.12000000000000001  0.3400000000000001  0.0  1.0000
  Au  Au155     1.0  0.12000000000000001  0.36000000000000004  0.0  1.0000
  Cu  Cu165     1.0  0.12000000000000001  0.38  0.0  1.0000
  Au  Au156     1.0  0.12000000000000001  0.4  0.0  1.0000
  Cu  Cu166     1.0  0.12000000000000001  0.42000000000000004  0.0  1.0000
  Au  Au157     1.0  0.12000000000000001  0.44  0.0  1.0000
  Cu  Cu167     1.0  0.12000000000000001  0.46  0.0  1.0000
  Au  Au158     1.0  0.12000000000000001  0.48000000000000004  0.0  1.0000
  Cu  Cu168     1.0  0.12000000000000001  0.5  0.0  1.0000
  Cu  Cu169     1.0  0.12000000000000001  0.52  0.0  1.0000
  Au  Au159     1.0  0.12000000000000001  0.54  0.0  1.0000
  Au  Au160     1.0  0.12000000000000001  0.5600000000000002  0.0  1.0000
  Au  Au161     1.0  0.12000000000000001  0.5800000000000001  0.0  1.0000
  Cu  Cu170     1.0  0.12000000000000001  0.6000000000000001  0.0  1.0000
  Au  Au162     1.0  0.12000000000000001  0.62  0.0  1.0000
  Cu  Cu171     1.0  0.12000000000000001  0.64  0.0  1.0000
  Au  Au163     1.0  0.12000000000000001  0.66  0.0  1.0000
  Au  Au164     1.0  0.12000000000000001  0.6800000000000002  0.0  1.0000
  Cu  Cu172     1.0  0.12000000000000001  0.7000000000000001  0.0  1.0000
  Au  Au165     1.0  0.12000000000000001  0.7200000000000001  0.0  1.0000
  Cu  Cu173     1.0  0.12000000000000001  0.7400000000000001  0.0  1.0000
  Au  Au166     1.0  0.12000000000000001  0.76  0.0  1.0000
  Cu  Cu174     1.0  0.12000000000000001  0.78  0.0  1.0000
  Au  Au167     1.0  0.12000000000000001  0.8  0.0  1.0000
  Cu  Cu175     1.0  0.12000000000000001  0.82  0.0  1.0000
  Cu  Cu176     1.0  0.12000000000000001  0.8400000000000001  0.0  1.0000
  Cu  Cu177     1.0  0.12000000000000001  0.8600000000000001  0.0  1.0000
  Au  Au168     1.0  0.12000000000000001  0.88  0.0  1.0000
  Cu  Cu178     1.0  0.12000000000000001  0.9  0.0  1.0000
  Au  Au169     1.0  0.12000000000000001  0.92  0.0  1.0000
  Cu  Cu179     1.0  0.12000000000000001  0.9400000000000001  0.0  1.0000
  Cu  Cu180     1.0  0.12000000000000001  0.9600000000000001  0.0  1.0000
  Cu  Cu181     1.0  0.12000000000000001  0.9800000000000001  0.0  1.0000
  Cu  Cu182     1.0  0.14000000000000004  0.0  0.0  1.0000
  Au  Au170     1.0  0.14000000000000004  0.02  0.0  1.0000
  Cu  Cu183     1.0  0.14000000000000004  0.04  0.0  1.0000
  Cu  Cu184     1.0  0.14000000000000004  0.060000000000000005  0.0  1.0000
  Au  Au171     1.0  0.14000000000000004  0.08  0.0  1.0000
  Cu  Cu185     1.0  0.14000000000000004  0.1  0.0  1.0000
  Cu  Cu186     1.0  0.14000000000000004  0.12000000000000001  0.0  1.0000
  Au  Au172     1.0  0.14000000000000004  0.14000000000000004  0.0  1.0000
  Au  Au173     1.0  0.14000000000000004  0.16  0.0  1.0000
  Cu  Cu187     1.0  0.14000000000000004  0.18000000000000002  0.0  1.0000
  Cu  Cu188     1.0  0.14000000000000004  0.2  0.0  1.0000
  Au  Au174     1.0  0.14000000000000004  0.22  0.0  1.0000
  Cu  Cu189     1.0  0.14000000000000004  0.24000000000000002  0.0  1.0000
  Au  Au175     1.0  0.14000000000000004  0.26  0.0  1.0000
  Au  Au176     1.0  0.14000000000000004  0.2800000000000001  0.0  1.0000
  Cu  Cu190     1.0  0.14000000000000004  0.30000000000000004  0.0  1.0000
  Cu  Cu191     1.0  0.14000000000000004  0.32  0.0  1.0000
  Au  Au177     1.0  0.14000000000000004  0.3400000000000001  0.0  1.0000
  Cu  Cu192     1.0  0.14000000000000004  0.36000000000000004  0.0  1.0000
  Au  Au178     1.0  0.14000000000000004  0.38  0.0  1.0000
  Cu  Cu193     1.0  0.14000000000000004  0.4  0.0  1.0000
  Au  Au179     1.0  0.14000000000000004  0.42000000000000004  0.0  1.0000
  Cu  Cu194     1.0  0.14000000000000004  0.44  0.0  1.0000
  Au  Au180     1.0  0.14000000000000004  0.46  0.0  1.0000
  Cu  Cu195     1.0  0.14000000000000004  0.48000000000000004  0.0  1.0000
  Cu  Cu196     1.0  0.14000000000000004  0.5  0.0  1.0000
  Au  Au181     1.0  0.14000000000000004  0.52  0.0  1.0000
  Cu  Cu197     1.0  0.14000000000000004  0.54  0.0  1.0000
  Au  Au182     1.0  0.14000000000000004  0.5600000000000002  0.0  1.0000
  Cu  Cu198     1.0  0.14000000000000004  0.5800000000000001  0.0  1.0000
  Au  Au183     1.0  0.14000000000000004  0.6000000000000001  0.0  1.0000
  Au  Au184     1.0  0.14000000000000004  0.62  0.0  1.0000
  Au  Au185     1.0  0.14000000000000004  0.64  0.0  1.0000
  Au  Au186     1.0  0.14000000000000004  0.66  0.0  1.0000
  Cu  Cu199     1.0  0.14000000000000004  0.6800000000000002  0.0  1.0000
  Au  Au187     1.0  0.14000000000000004  0.7000000000000001  0.0  1.0000
  Cu  Cu200     1.0  0.14000000000000004  0.7200000000000001  0.0  1.0000
  Cu  Cu201     1.0  0.14000000000000004  0.7400000000000001  0.0  1.0000
  Cu  Cu202     1.0  0.14000000000000004  0.76  0.0  1.0000
  Au  Au188     1.0  0.14000000000000004  0.78  0.0  1.0000
  Cu  Cu203     1.0  0.14000000000000004  0.8  0.0  1.0000
  Au  Au189     1.0  0.14000000000000004  0.82  0.0  1.0000
  Au  Au190     1.0  0.14000000000000004  0.8400000000000001  0.0  1.0000
  Cu  Cu204     1.0  0.14000000000000004  0.8600000000000001  0.0  1.0000
  Au  Au191     1.0  0.14000000000000004  0.88  0.0  1.0000
  Cu  Cu205     1.0  0.14000000000000004  0.9  0.0  1.0000
  Au  Au192     1.0  0.14000000000000004  0.92  0.0  1.0000
  Au  Au193     1.0  0.14000000000000004  0.9400000000000001  0.0  1.0000
  Cu  Cu206     1.0  0.14000000000000004  0.9600000000000001  0.0  1.0000
  Au  Au194     1.0  0.14000000000000004  0.9800000000000001  0.0  1.0000
  Au  Au195     1.0  0.16  0.0  0.0  1.0000
  Cu  Cu207     1.0  0.16  0.02  0.0  1.0000
  Au  Au196     1.0  0.16  0.04  0.0  1.0000
  Au  Au197     1.0  0.16  0.060000000000000005  0.0  1.0000
  Cu  Cu208     1.0  0.16  0.08  0.0  1.0000
  Au  Au198     1.0  0.16  0.1  0.0  1.0000
  Au  Au199     1.0  0.16  0.12000000000000001  0.0  1.0000
  Cu  Cu209     1.0  0.16  0.14000000000000004  0.0  1.0000
  Au  Au200     1.0  0.16  0.16  0.0  1.0000
  Cu  Cu210     1.0  0.16  0.18000000000000002  0.0  1.0000
  Au  Au201     1.0  0.16  0.2  0.0  1.0000
  Cu  Cu211     1.0  0.16  0.22  0.0  1.0000
  Au  Au202     1.0  0.16  0.24000000000000002  0.0  1.0000
  Cu  Cu212     1.0  0.16  0.26  0.0  1.0000
  Cu  Cu213     1.0  0.16  0.2800000000000001  0.0  1.0000
  Au  Au203     1.0  0.16  0.30000000000000004  0.0  1.0000
  Au  Au204     1.0  0.16  0.32  0.0  1.0000
  Cu  Cu214     1.0  0.16  0.3400000000000001  0.0  1.0000
  Au  Au205     1.0  0.16  0.36000000000000004  0.0  1.0000
  Cu  Cu215     1.0  0.16  0.38  0.0  1.0000
  Au  Au206     1.0  0.16  0.4  0.0  1.0000
  Cu  Cu216     1.0  0.16  0.42000000000000004  0.0  1.0000
  Au  Au207     1.0  0.16  0.44  0.0  1.0000
  Cu  Cu217     1.0  0.16  0.46  0.0  1.0000
  Au  Au208     1.0  0.16  0.48000000000000004  0.0  1.0000
  Au  Au209     1.0  0.16  0.5  0.0  1.0000
  Cu  Cu218     1.0  0.16  0.52  0.0  1.0000
  Au  Au210     1.0  0.16  0.54  0.0  1.0000
  Cu  Cu219     1.0  0.16  0.5600000000000002  0.0  1.0000
  Au  Au211     1.0  0.16  0.5800000000000001  0.0  1.0000
  Cu  Cu220     1.0  0.16  0.6000000000000001  0.0  1.0000
  Au  Au212     1.0  0.16  0.62  0.0  1.0000
  Cu  Cu221     1.0  0.16  0.64  0.0  1.0000
  Cu  Cu222     1.0  0.16  0.66  0.0  1.0000
  Cu  Cu223     1.0  0.16  0.6800000000000002  0.0  1.0000
  Cu  Cu224     1.0  0.16  0.7000000000000001  0.0  1.0000
  Au  Au213     1.0  0.16  0.7200000000000001  0.0  1.0000
  Cu  Cu225     1.0  0.16  0.7400000000000001  0.0  1.0000
  Au  Au214     1.0  0.16  0.76  0.0  1.0000
  Cu  Cu226     1.0  0.16  0.78  0.0  1.0000
  Au  Au215     1.0  0.16  0.8  0.0  1.0000
  Cu  Cu227     1.0  0.16  0.82  0.0  1.0000
  Au  Au216     1.0  0.16  0.8400000000000001  0.0  1.0000
  Au  Au217     1.0  0.16  0.8600000000000001  0.0  1.0000
  Cu  Cu228     1.0  0.16  0.88  0.0  1.0000
  Au  Au218     1.0  0.16  0.9  0.0  1.0000
  Cu  Cu229     1.0  0.16  0.92  0.0  1.0000
  Au  Au219     1.0  0.16  0.9400000000000001  0.0  1.0000
  Au  Au220     1.0  0.16  0.9600000000000001  0.0  1.0000
  Cu  Cu230     1.0  0.16  0.9800000000000001  0.0  1.0000
  Au  Au221     1.0  0.18000000000000002  0.0  0.0  1.0000
  Cu  Cu231     1.0  0.18000000000000002  0.02  0.0  1.0000
  Cu  Cu232     1.0  0.18000000000000002  0.04  0.0  1.0000
  Cu  Cu233     1.0  0.18000000000000002  0.060000000000000005  0.0  1.0000
  Au  Au222     1.0  0.18000000000000002  0.08  0.0  1.0000
  Cu  Cu234     1.0  0.18000000000000002  0.1  0.0  1.0000
  Cu  Cu235     1.0  0.18000000000000002  0.12000000000000001  0.0  1.0000
  Au  Au223     1.0  0.18000000000000002  0.14000000000000004  0.0  1.0000
  Cu  Cu236     1.0  0.18000000000000002  0.16  0.0  1.0000
  Au  Au224     1.0  0.18000000000000002  0.18000000000000002  0.0  1.0000
  Cu  Cu237     1.0  0.18000000000000002  0.2  0.0  1.0000
  Au  Au225     1.0  0.18000000000000002  0.22  0.0  1.0000
  Cu  Cu238     1.0  0.18000000000000002  0.24000000000000002  0.0  1.0000
  Au  Au226     1.0  0.18000000000000002  0.26  0.0  1.0000
  Cu  Cu239     1.0  0.18000000000000002  0.2800000000000001  0.0  1.0000
  Au  Au227     1.0  0.18000000000000002  0.30000000000000004  0.0  1.0000
  Cu  Cu240     1.0  0.18000000000000002  0.32  0.0  1.0000
  Au  Au228     1.0  0.18000000000000002  0.3400000000000001  0.0  1.0000
  Cu  Cu241     1.0  0.18000000000000002  0.36000000000000004  0.0  1.0000
  Au  Au229     1.0  0.18000000000000002  0.38  0.0  1.0000
  Au  Au230     1.0  0.18000000000000002  0.4  0.0  1.0000
  Cu  Cu242     1.0  0.18000000000000002  0.42000000000000004  0.0  1.0000
  Au  Au231     1.0  0.18000000000000002  0.44  0.0  1.0000
  Cu  Cu243     1.0  0.18000000000000002  0.46  0.0  1.0000
  Au  Au232     1.0  0.18000000000000002  0.48000000000000004  0.0  1.0000
  Cu  Cu244     1.0  0.18000000000000002  0.5  0.0  1.0000
  Au  Au233     1.0  0.18000000000000002  0.52  0.0  1.0000
  Cu  Cu245     1.0  0.18000000000000002  0.54  0.0  1.0000
  Au  Au234     1.0  0.18000000000000002  0.5600000000000002  0.0  1.0000
  Cu  Cu246     1.0  0.18000000000000002  0.5800000000000001  0.0  1.0000
  Au  Au235     1.0  0.18000000000000002  0.6000000000000001  0.0  1.0000
  Au  Au236     1.0  0.18000000000000002  0.62  0.0  1.0000
  Cu  Cu247     1.0  0.18000000000000002  0.64  0.0  1.0000
  Cu  Cu248     1.0  0.18000000000000002  0.66  0.0  1.0000
  Au  Au237     1.0  0.18000000000000002  0.6800000000000002  0.0  1.0000
  Cu  Cu249     1.0  0.18000000000000002  0.7000000000000001  0.0  1.0000
  Au  Au238     1.0  0.18000000000000002  0.7200000000000001  0.0  1.0000
  Au  Au239     1.0  0.18000000000000002  0.7400000000000001  0.0  1.0000
  Cu  Cu250     1.0  0.18000000000000002  0.76  0.0  1.0000
  Au  Au240     1.0  0.18000000000000002  0.78  0.0  1.0000
  Cu  Cu251     1.0  0.18000000000000002  0.8  0.0  1.0000
  Au  Au241     1.0  0.18000000000000002  0.82  0.0  1.0000
  Cu  Cu252     1.0  0.18000000000000002  0.8400000000000001  0.0  1.0000
  Au  Au242     1.0  0.18000000000000002  0.8600000000000001  0.0  1.0000
  Au  Au243     1.0  0.18000000000000002  0.88  0.0  1.0000
  Cu  Cu253     1.0  0.18000000000000002  0.9  0.0  1.0000
  Au  Au244     1.0  0.18000000000000002  0.92  0.0  1.0000
  Cu  Cu254     1.0  0.18000000000000002  0.9400000000000001  0.0  1.0000
  Cu  Cu255     1.0  0.18000000000000002  0.9600000000000001  0.0  1.0000
  Au  Au245     1.0  0.18000000000000002  0.9800000000000001  0.0  1.0000
  Au  Au246     1.0  0.2  0.0  0.0  1.0000
  Au  Au247     1.0  0.2  0.02  0.0  1.0000
  Cu  Cu256     1.0  0.2  0.04  0.0  1.0000
  Au  Au248     1.0  0.2  0.060000000000000005  0.0  1.0000
  Cu  Cu257     1.0  0.2  0.08  0.0  1.0000
  Au  Au249     1.0  0.2  0.1  0.0  1.0000
  Cu  Cu258     1.0  0.2  0.12000000000000001  0.0  1.0000
  Cu  Cu259     1.0  0.2  0.14000000000000004  0.0  1.0000
  Au  Au250     1.0  0.2  0.16  0.0  1.0000
  Cu  Cu260     1.0  0.2  0.18000000000000002  0.0  1.0000
  Au  Au251     1.0  0.2  0.2  0.0  1.0000
  Au  Au252     1.0  0.2  0.22  0.0  1.0000
  Au  Au253     1.0  0.2  0.24000000000000002  0.0  1.0000
  Cu  Cu261     1.0  0.2  0.26  0.0  1.0000
  Au  Au254     1.0  0.2  0.2800000000000001  0.0  1.0000
  Cu  Cu262     1.0  0.2  0.30000000000000004  0.0  1.0000
  Au  Au255     1.0  0.2  0.32  0.0  1.0000
  Cu  Cu263     1.0  0.2  0.3400000000000001  0.0  1.0000
  Au  Au256     1.0  0.2  0.36000000000000004  0.0  1.0000
  Au  Au257     1.0  0.2  0.38  0.0  1.0000
  Cu  Cu264     1.0  0.2  0.4  0.0  1.0000
  Au  Au258     1.0  0.2  0.42000000000000004  0.0  1.0000
  Cu  Cu265     1.0  0.2  0.44  0.0  1.0000
  Au  Au259     1.0  0.2  0.46  0.0  1.0000
  Cu  Cu266     1.0  0.2  0.48000000000000004  0.0  1.0000
  Au  Au260     1.0  0.2  0.5  0.0  1.0000
  Cu  Cu267     1.0  0.2  0.52  0.0  1.0000
  Au  Au261     1.0  0.2  0.54  0.0  1.0000
  Au  Au262     1.0  0.2  0.5600000000000002  0.0  1.0000
  Au  Au263     1.0  0.2  0.5800000000000001  0.0  1.0000
  Cu  Cu268     1.0  0.2  0.6000000000000001  0.0  1.0000
  Au  Au264     1.0  0.2  0.62  0.0  1.0000
  Au  Au265     1.0  0.2  0.64  0.0  1.0000
  Au  Au266     1.0  0.2  0.66  0.0  1.0000
  Cu  Cu269     1.0  0.2  0.6800000000000002  0.0  1.0000
  Au  Au267     1.0  0.2  0.7000000000000001  0.0  1.0000
  Cu  Cu270     1.0  0.2  0.7200000000000001  0.0  1.0000
  Au  Au268     1.0  0.2  0.7400000000000001  0.0  1.0000
  Au  Au269     1.0  0.2  0.76  0.0  1.0000
  Cu  Cu271     1.0  0.2  0.78  0.0  1.0000
  Au  Au270     1.0  0.2  0.8  0.0  1.0000
  Cu  Cu272     1.0  0.2  0.82  0.0  1.0000
  Au  Au271     1.0  0.2  0.8400000000000001  0.0  1.0000
  Cu  Cu273     1.0  0.2  0.8600000000000001  0.0  1.0000
  Cu  Cu274     1.0  0.2  0.88  0.0  1.0000
  Cu  Cu275     1.0  0.2  0.9  0.0  1.0000
  Cu  Cu276     1.0  0.2  0.92  0.0  1.0000
  Au  Au272     1.0  0.2  0.9400000000000001  0.0  1.0000
  Cu  Cu277     1.0  0.2  0.9600000000000001  0.0  1.0000
  Cu  Cu278     1.0  0.2  0.9800000000000001  0.0  1.0000
  Au  Au273     1.0  0.22  0.0  0.0  1.0000
  Cu  Cu279     1.0  0.22  0.02  0.0  1.0000
  Au  Au274     1.0  0.22  0.04  0.0  1.0000
  Au  Au275     1.0  0.22  0.060000000000000005  0.0  1.0000
  Au  Au276     1.0  0.22  0.08  0.0  1.0000
  Cu  Cu280     1.0  0.22  0.1  0.0  1.0000
  Au  Au277     1.0  0.22  0.12000000000000001  0.0  1.0000
  Au  Au278     1.0  0.22  0.14000000000000004  0.0  1.0000
  Cu  Cu281     1.0  0.22  0.16  0.0  1.0000
  Au  Au279     1.0  0.22  0.18000000000000002  0.0  1.0000
  Cu  Cu282     1.0  0.22  0.2  0.0  1.0000
  Cu  Cu283     1.0  0.22  0.22  0.0  1.0000
  Au  Au280     1.0  0.22  0.24000000000000002  0.0  1.0000
  Au  Au281     1.0  0.22  0.26  0.0  1.0000
  Cu  Cu284     1.0  0.22  0.2800000000000001  0.0  1.0000
  Au  Au282     1.0  0.22  0.30000000000000004  0.0  1.0000
  Cu  Cu285     1.0  0.22  0.32  0.0  1.0000
  Au  Au283     1.0  0.22  0.3400000000000001  0.0  1.0000
  Cu  Cu286     1.0  0.22  0.36000000000000004  0.0  1.0000
  Au  Au284     1.0  0.22  0.38  0.0  1.0000
  Au  Au285     1.0  0.22  0.4  0.0  1.0000
  Cu  Cu287     1.0  0.22  0.42000000000000004  0.0  1.0000
  Au  Au286     1.0  0.22  0.44  0.0  1.0000
  Cu  Cu288     1.0  0.22  0.46  0.0  1.0000
  Cu  Cu289     1.0  0.22  0.48000000000000004  0.0  1.0000
  Cu  Cu290     1.0  0.22  0.5  0.0  1.0000
  Au  Au287     1.0  0.22  0.52  0.0  1.0000
  Cu  Cu291     1.0  0.22  0.54  0.0  1.0000
  Au  Au288     1.0  0.22  0.5600000000000002  0.0  1.0000
  Cu  Cu292     1.0  0.22  0.5800000000000001  0.0  1.0000
  Au  Au289     1.0  0.22  0.6000000000000001  0.0  1.0000
  Cu  Cu293     1.0  0.22  0.62  0.0  1.0000
  Cu  Cu294     1.0  0.22  0.64  0.0  1.0000
  Cu  Cu295     1.0  0.22  0.66  0.0  1.0000
  Cu  Cu296     1.0  0.22  0.6800000000000002  0.0  1.0000
  Au  Au290     1.0  0.22  0.7000000000000001  0.0  1.0000
  Cu  Cu297     1.0  0.22  0.7200000000000001  0.0  1.0000
  Cu  Cu298     1.0  0.22  0.7400000000000001  0.0  1.0000
  Au  Au291     1.0  0.22  0.76  0.0  1.0000
  Au  Au292     1.0  0.22  0.78  0.0  1.0000
  Cu  Cu299     1.0  0.22  0.8  0.0  1.0000
  Au  Au293     1.0  0.22  0.82  0.0  1.0000
  Cu  Cu300     1.0  0.22  0.8400000000000001  0.0  1.0000
  Au  Au294     1.0  0.22  0.8600000000000001  0.0  1.0000
  Au  Au295     1.0  0.22  0.88  0.0  1.0000
  Cu  Cu301     1.0  0.22  0.9  0.0  1.0000
  Au  Au296     1.0  0.22  0.92  0.0  1.0000
  Cu  Cu302     1.0  0.22  0.9400000000000001  0.0  1.0000
  Au  Au297     1.0  0.22  0.9600000000000001  0.0  1.0000
  Cu  Cu303     1.0  0.22  0.9800000000000001  0.0  1.0000
  Cu  Cu304     1.0  0.24000000000000002  0.0  0.0  1.0000
  Au  Au298     1.0  0.24000000000000002  0.02  0.0  1.0000
  Cu  Cu305     1.0  0.24000000000000002  0.04  0.0  1.0000
  Au  Au299     1.0  0.24000000000000002  0.060000000000000005  0.0  1.0000
  Cu  Cu306     1.0  0.24000000000000002  0.08  0.0  1.0000
  Au  Au300     1.0  0.24000000000000002  0.1  0.0  1.0000
  Cu  Cu307     1.0  0.24000000000000002  0.12000000000000001  0.0  1.0000
  Au  Au301     1.0  0.24000000000000002  0.14000000000000004  0.0  1.0000
  Au  Au302     1.0  0.24000000000000002  0.16  0.0  1.0000
  Cu  Cu308     1.0  0.24000000000000002  0.18000000000000002  0.0  1.0000
  Au  Au303     1.0  0.24000000000000002  0.2  0.0  1.0000
  Au  Au304     1.0  0.24000000000000002  0.22  0.0  1.0000
  Cu  Cu309     1.0  0.24000000000000002  0.24000000000000002  0.0  1.0000
  Cu  Cu310     1.0  0.24000000000000002  0.26  0.0  1.0000
  Au  Au305     1.0  0.24000000000000002  0.2800000000000001  0.0  1.0000
  Cu  Cu311     1.0  0.24000000000000002  0.30000000000000004  0.0  1.0000
  Cu  Cu312     1.0  0.24000000000000002  0.32  0.0  1.0000
  Au  Au306     1.0  0.24000000000000002  0.3400000000000001  0.0  1.0000
  Cu  Cu313     1.0  0.24000000000000002  0.36000000000000004  0.0  1.0000
  Cu  Cu314     1.0  0.24000000000000002  0.38  0.0  1.0000
  Au  Au307     1.0  0.24000000000000002  0.4  0.0  1.0000
  Au  Au308     1.0  0.24000000000000002  0.42000000000000004  0.0  1.0000
  Cu  Cu315     1.0  0.24000000000000002  0.44  0.0  1.0000
  Au  Au309     1.0  0.24000000000000002  0.46  0.0  1.0000
  Au  Au310     1.0  0.24000000000000002  0.48000000000000004  0.0  1.0000
  Cu  Cu316     1.0  0.24000000000000002  0.5  0.0  1.0000
  Cu  Cu317     1.0  0.24000000000000002  0.52  0.0  1.0000
  Au  Au311     1.0  0.24000000000000002  0.54  0.0  1.0000
  Cu  Cu318     1.0  0.24000000000000002  0.5600000000000002  0.0  1.0000
  Au  Au312     1.0  0.24000000000000002  0.5800000000000001  0.0  1.0000
  Cu  Cu319     1.0  0.24000000000000002  0.6000000000000001  0.0  1.0000
  Au  Au313     1.0  0.24000000000000002  0.62  0.0  1.0000
  Cu  Cu320     1.0  0.24000000000000002  0.64  0.0  1.0000
  Au  Au314     1.0  0.24000000000000002  0.66  0.0  1.0000
  Cu  Cu321     1.0  0.24000000000000002  0.6800000000000002  0.0  1.0000
  Au  Au315     1.0  0.24000000000000002  0.7000000000000001  0.0  1.0000
  Cu  Cu322     1.0  0.24000000000000002  0.7200000000000001  0.0  1.0000
  Au  Au316     1.0  0.24000000000000002  0.7400000000000001  0.0  1.0000
  Cu  Cu323     1.0  0.24000000000000002  0.76  0.0  1.0000
  Au  Au317     1.0  0.24000000000000002  0.78  0.0  1.0000
  Au  Au318     1.0  0.24000000000000002  0.8  0.0  1.0000
  Cu  Cu324     1.0  0.24000000000000002  0.82  0.0  1.0000
  Au  Au319     1.0  0.24000000000000002  0.8400000000000001  0.0  1.0000
  Cu  Cu325     1.0  0.24000000000000002  0.8600000000000001  0.0  1.0000
  Au  Au320     1.0  0.24000000000000002  0.88  0.0  1.0000
  Au  Au321     1.0  0.24000000000000002  0.9  0.0  1.0000
  Cu  Cu326     1.0  0.24000000000000002  0.92  0.0  1.0000
  Au  Au322     1.0  0.24000000000000002  0.9400000000000001  0.0  1.0000
  Cu  Cu327     1.0  0.24000000000000002  0.9600000000000001  0.0  1.0000
  Au  Au323     1.0  0.24000000000000002  0.9800000000000001  0.0  1.0000
  Au  Au324     1.0  0.26  0.0  0.0  1.0000
  Cu  Cu328     1.0  0.26  0.02  0.0  1.0000
  Au  Au325     1.0  0.26  0.04  0.0  1.0000
  Cu  Cu329     1.0  0.26  0.060000000000000005  0.0  1.0000
  Au  Au326     1.0  0.26  0.08  0.0  1.0000
  Cu  Cu330     1.0  0.26  0.1  0.0  1.0000
  Au  Au327     1.0  0.26  0.12000000000000001  0.0  1.0000
  Au  Au328     1.0  0.26  0.14000000000000004  0.0  1.0000
  Cu  Cu331     1.0  0.26  0.16  0.0  1.0000
  Au  Au329     1.0  0.26  0.18000000000000002  0.0  1.0000
  Cu  Cu332     1.0  0.26  0.2  0.0  1.0000
  Cu  Cu333     1.0  0.26  0.22  0.0  1.0000
  Cu  Cu334     1.0  0.26  0.24000000000000002  0.0  1.0000
  Au  Au330     1.0  0.26  0.26  0.0  1.0000
  Cu  Cu335     1.0  0.26  0.2800000000000001  0.0  1.0000
  Au  Au331     1.0  0.26  0.30000000000000004  0.0  1.0000
  Au  Au332     1.0  0.26  0.32  0.0  1.0000
  Cu  Cu336     1.0  0.26  0.3400000000000001  0.0  1.0000
  Au  Au333     1.0  0.26  0.36000000000000004  0.0  1.0000
  Cu  Cu337     1.0  0.26  0.38  0.0  1.0000
  Cu  Cu338     1.0  0.26  0.4  0.0  1.0000
  Au  Au334     1.0  0.26  0.42000000000000004  0.0  1.0000
  Au  Au335     1.0  0.26  0.44  0.0  1.0000
  Au  Au336     1.0  0.26  0.46  0.0  1.0000
  Cu  Cu339     1.0  0.26  0.48000000000000004  0.0  1.0000
  Cu  Cu340     1.0  0.26  0.5  0.0  1.0000
  Cu  Cu341     1.0  0.26  0.52  0.0  1.0000
  Cu  Cu342     1.0  0.26  0.54  0.0  1.0000
  Au  Au337     1.0  0.26  0.5600000000000002  0.0  1.0000
  Cu  Cu343     1.0  0.26  0.5800000000000001  0.0  1.0000
  Au  Au338     1.0  0.26  0.6000000000000001  0.0  1.0000
  Cu  Cu344     1.0  0.26  0.62  0.0  1.0000
  Au  Au339     1.0  0.26  0.64  0.0  1.0000
  Cu  Cu345     1.0  0.26  0.66  0.0  1.0000
  Au  Au340     1.0  0.26  0.6800000000000002  0.0  1.0000
  Cu  Cu346     1.0  0.26  0.7000000000000001  0.0  1.0000
  Au  Au341     1.0  0.26  0.7200000000000001  0.0  1.0000
  Au  Au342     1.0  0.26  0.7400000000000001  0.0  1.0000
  Au  Au343     1.0  0.26  0.76  0.0  1.0000
  Au  Au344     1.0  0.26  0.78  0.0  1.0000
  Cu  Cu347     1.0  0.26  0.8  0.0  1.0000
  Cu  Cu348     1.0  0.26  0.82  0.0  1.0000
  Cu  Cu349     1.0  0.26  0.8400000000000001  0.0  1.0000
  Au  Au345     1.0  0.26  0.8600000000000001  0.0  1.0000
  Cu  Cu350     1.0  0.26  0.88  0.0  1.0000
  Cu  Cu351     1.0  0.26  0.9  0.0  1.0000
  Au  Au346     1.0  0.26  0.92  0.0  1.0000
  Cu  Cu352     1.0  0.26  0.9400000000000001  0.0  1.0000
  Au  Au347     1.0  0.26  0.9600000000000001  0.0  1.0000
  Cu  Cu353     1.0  0.26  0.9800000000000001  0.0  1.0000
  Cu  Cu354     1.0  0.2800000000000001  0.0  0.0  1.0000
  Au  Au348     1.0  0.2800000000000001  0.02  0.0  1.0000
  Cu  Cu355     1.0  0.2800000000000001  0.04  0.0  1.0000
  Au  Au349     1.0  0.2800000000000001  0.060000000000000005  0.0  1.0000
  Cu  Cu356     1.0  0.2800000000000001  0.08  0.0  1.0000
  Cu  Cu357     1.0  0.2800000000000001  0.1  0.0  1.0000
  Au  Au350     1.0  0.2800000000000001  0.12000000000000001  0.0  1.0000
  Cu  Cu358     1.0  0.2800000000000001  0.14000000000000004  0.0  1.0000
  Au  Au351     1.0  0.2800000000000001  0.16  0.0  1.0000
  Cu  Cu359     1.0  0.2800000000000001  0.18000000000000002  0.0  1.0000
  Au  Au352     1.0  0.2800000000000001  0.2  0.0  1.0000
  Au  Au353     1.0  0.2800000000000001  0.22  0.0  1.0000
  Au  Au354     1.0  0.2800000000000001  0.24000000000000002  0.0  1.0000
  Cu  Cu360     1.0  0.2800000000000001  0.26  0.0  1.0000
  Au  Au355     1.0  0.2800000000000001  0.2800000000000001  0.0  1.0000
  Au  Au356     1.0  0.2800000000000001  0.30000000000000004  0.0  1.0000
  Cu  Cu361     1.0  0.2800000000000001  0.32  0.0  1.0000
  Au  Au357     1.0  0.2800000000000001  0.3400000000000001  0.0  1.0000
  Cu  Cu362     1.0  0.2800000000000001  0.36000000000000004  0.0  1.0000
  Au  Au358     1.0  0.2800000000000001  0.38  0.0  1.0000
  Au  Au359     1.0  0.2800000000000001  0.4  0.0  1.0000
  Cu  Cu363     1.0  0.2800000000000001  0.42000000000000004  0.0  1.0000
  Au  Au360     1.0  0.2800000000000001  0.44  0.0  1.0000
  Cu  Cu364     1.0  0.2800000000000001  0.46  0.0  1.0000
  Au  Au361     1.0  0.2800000000000001  0.48000000000000004  0.0  1.0000
  Au  Au362     1.0  0.2800000000000001  0.5  0.0  1.0000
  Cu  Cu365     1.0  0.2800000000000001  0.52  0.0  1.0000
  Au  Au363     1.0  0.2800000000000001  0.54  0.0  1.0000
  Cu  Cu366     1.0  0.2800000000000001  0.5600000000000002  0.0  1.0000
  Au  Au364     1.0  0.2800000000000001  0.5800000000000001  0.0  1.0000
  Cu  Cu367     1.0  0.2800000000000001  0.6000000000000001  0.0  1.0000
  Au  Au365     1.0  0.2800000000000001  0.62  0.0  1.0000
  Cu  Cu368     1.0  0.2800000000000001  0.64  0.0  1.0000
  Au  Au366     1.0  0.2800000000000001  0.66  0.0  1.0000
  Au  Au367     1.0  0.2800000000000001  0.6800000000000002  0.0  1.0000
  Au  Au368     1.0  0.2800000000000001  0.7000000000000001  0.0  1.0000
  Cu  Cu369     1.0  0.2800000000000001  0.7200000000000001  0.0  1.0000
  Cu  Cu370     1.0  0.2800000000000001  0.7400000000000001  0.0  1.0000
  Cu  Cu371     1.0  0.2800000000000001  0.76  0.0  1.0000
  Cu  Cu372     1.0  0.2800000000000001  0.78  0.0  1.0000
  Au  Au369     1.0  0.2800000000000001  0.8  0.0  1.0000
  Au  Au370     1.0  0.2800000000000001  0.82  0.0  1.0000
  Cu  Cu373     1.0  0.2800000000000001  0.8400000000000001  0.0  1.0000
  Cu  Cu374     1.0  0.2800000000000001  0.8600000000000001  0.0  1.0000
  Au  Au371     1.0  0.2800000000000001  0.88  0.0  1.0000
  Cu  Cu375     1.0  0.2800000000000001  0.9  0.0  1.0000
  Cu  Cu376     1.0  0.2800000000000001  0.92  0.0  1.0000
  Au  Au372     1.0  0.2800000000000001  0.9400000000000001  0.0  1.0000
  Cu  Cu377     1.0  0.2800000000000001  0.9600000000000001  0.0  1.0000
  Au  Au373     1.0  0.2800000000000001  0.9800000000000001  0.0  1.0000
  Au  Au374     1.0  0.30000000000000004  0.0  0.0  1.0000
  Cu  Cu378     1.0  0.30000000000000004  0.02  0.0  1.0000
  Au  Au375     1.0  0.30000000000000004  0.04  0.0  1.0000
  Cu  Cu379     1.0  0.30000000000000004  0.060000000000000005  0.0  1.0000
  Au  Au376     1.0  0.30000000000000004  0.08  0.0  1.0000
  Au  Au377     1.0  0.30000000000000004  0.1  0.0  1.0000
  Cu  Cu380     1.0  0.30000000000000004  0.12000000000000001  0.0  1.0000
  Au  Au378     1.0  0.30000000000000004  0.14000000000000004  0.0  1.0000
  Cu  Cu381     1.0  0.30000000000000004  0.16  0.0  1.0000
  Au  Au379     1.0  0.30000000000000004  0.18000000000000002  0.0  1.0000
  Cu  Cu382     1.0  0.30000000000000004  0.2  0.0  1.0000
  Cu  Cu383     1.0  0.30000000000000004  0.22  0.0  1.0000
  Cu  Cu384     1.0  0.30000000000000004  0.24000000000000002  0.0  1.0000
  Au  Au380     1.0  0.30000000000000004  0.26  0.0  1.0000
  Cu  Cu385     1.0  0.30000000000000004  0.2800000000000001  0.0  1.0000
  Cu  Cu386     1.0  0.30000000000000004  0.30000000000000004  0.0  1.0000
  Au  Au381     1.0  0.30000000000000004  0.32  0.0  1.0000
  Cu  Cu387     1.0  0.30000000000000004  0.3400000000000001  0.0  1.0000
  Cu  Cu388     1.0  0.30000000000000004  0.36000000000000004  0.0  1.0000
  Au  Au382     1.0  0.30000000000000004  0.38  0.0  1.0000
  Au  Au383     1.0  0.30000000000000004  0.4  0.0  1.0000
  Au  Au384     1.0  0.30000000000000004  0.42000000000000004  0.0  1.0000
  Cu  Cu389     1.0  0.30000000000000004  0.44  0.0  1.0000
  Cu  Cu390     1.0  0.30000000000000004  0.46  0.0  1.0000
  Cu  Cu391     1.0  0.30000000000000004  0.48000000000000004  0.0  1.0000
  Au  Au385     1.0  0.30000000000000004  0.5  0.0  1.0000
  Au  Au386     1.0  0.30000000000000004  0.52  0.0  1.0000
  Cu  Cu392     1.0  0.30000000000000004  0.54  0.0  1.0000
  Au  Au387     1.0  0.30000000000000004  0.5600000000000002  0.0  1.0000
  Cu  Cu393     1.0  0.30000000000000004  0.5800000000000001  0.0  1.0000
  Au  Au388     1.0  0.30000000000000004  0.6000000000000001  0.0  1.0000
  Cu  Cu394     1.0  0.30000000000000004  0.62  0.0  1.0000
  Au  Au389     1.0  0.30000000000000004  0.64  0.0  1.0000
  Cu  Cu395     1.0  0.30000000000000004  0.66  0.0  1.0000
  Au  Au390     1.0  0.30000000000000004  0.6800000000000002  0.0  1.0000
  Cu  Cu396     1.0  0.30000000000000004  0.7000000000000001  0.0  1.0000
  Au  Au391     1.0  0.30000000000000004  0.7200000000000001  0.0  1.0000
  Cu  Cu397     1.0  0.30000000000000004  0.7400000000000001  0.0  1.0000
  Au  Au392     1.0  0.30000000000000004  0.76  0.0  1.0000
  Au  Au393     1.0  0.30000000000000004  0.78  0.0  1.0000
  Cu  Cu398     1.0  0.30000000000000004  0.8  0.0  1.0000
  Au  Au394     1.0  0.30000000000000004  0.82  0.0  1.0000
  Au  Au395     1.0  0.30000000000000004  0.8400000000000001  0.0  1.0000
  Au  Au396     1.0  0.30000000000000004  0.8600000000000001  0.0  1.0000
  Cu  Cu399     1.0  0.30000000000000004  0.88  0.0  1.0000
  Au  Au397     1.0  0.30000000000000004  0.9  0.0  1.0000
  Au  Au398     1.0  0.30000000000000004  0.92  0.0  1.0000
  Cu  Cu400     1.0  0.30000000000000004  0.9400000000000001  0.0  1.0000
  Cu  Cu401     1.0  0.30000000000000004  0.9600000000000001  0.0  1.0000
  Cu  Cu402     1.0  0.30000000000000004  0.9800000000000001  0.0  1.0000
  Au  Au399     1.0  0.32  0.0  0.0  1.0000
  Au  Au400     1.0  0.32  0.02  0.0  1.0000
  Cu  Cu403     1.0  0.32  0.04  0.0  1.0000
  Au  Au401     1.0  0.32  0.060000000000000005  0.0  1.0000
  Cu  Cu404     1.0  0.32  0.08  0.0  1.0000
  Au  Au402     1.0  0.32  0.1  0.0  1.0000
  Cu  Cu405     1.0  0.32  0.12000000000000001  0.0  1.0000
  Cu  Cu406     1.0  0.32  0.14000000000000004  0.0  1.0000
  Cu  Cu407     1.0  0.32  0.16  0.0  1.0000
  Au  Au403     1.0  0.32  0.18000000000000002  0.0  1.0000
  Au  Au404     1.0  0.32  0.2  0.0  1.0000
  Au  Au405     1.0  0.32  0.22  0.0  1.0000
  Au  Au406     1.0  0.32  0.24000000000000002  0.0  1.0000
  Cu  Cu408     1.0  0.32  0.26  0.0  1.0000
  Au  Au407     1.0  0.32  0.2800000000000001  0.0  1.0000
  Au  Au408     1.0  0.32  0.30000000000000004  0.0  1.0000
  Cu  Cu409     1.0  0.32  0.32  0.0  1.0000
  Cu  Cu410     1.0  0.32  0.3400000000000001  0.0  1.0000
  Cu  Cu411     1.0  0.32  0.36000000000000004  0.0  1.0000
  Au  Au409     1.0  0.32  0.38  0.0  1.0000
  Cu  Cu412     1.0  0.32  0.4  0.0  1.0000
  Cu  Cu413     1.0  0.32  0.42000000000000004  0.0  1.0000
  Cu  Cu414     1.0  0.32  0.44  0.0  1.0000
  Au  Au410     1.0  0.32  0.46  0.0  1.0000
  Cu  Cu415     1.0  0.32  0.48000000000000004  0.0  1.0000
  Au  Au411     1.0  0.32  0.5  0.0  1.0000
  Cu  Cu416     1.0  0.32  0.52  0.0  1.0000
  Au  Au412     1.0  0.32  0.54  0.0  1.0000
  Cu  Cu417     1.0  0.32  0.5600000000000002  0.0  1.0000
  Au  Au413     1.0  0.32  0.5800000000000001  0.0  1.0000
  Cu  Cu418     1.0  0.32  0.6000000000000001  0.0  1.0000
  Au  Au414     1.0  0.32  0.62  0.0  1.0000
  Cu  Cu419     1.0  0.32  0.64  0.0  1.0000
  Au  Au415     1.0  0.32  0.66  0.0  1.0000
  Au  Au416     1.0  0.32  0.6800000000000002  0.0  1.0000
  Au  Au417     1.0  0.32  0.7000000000000001  0.0  1.0000
  Cu  Cu420     1.0  0.32  0.7200000000000001  0.0  1.0000
  Au  Au418     1.0  0.32  0.7400000000000001  0.0  1.0000
  Cu  Cu421     1.0  0.32  0.76  0.0  1.0000
  Cu  Cu422     1.0  0.32  0.78  0.0  1.0000
  Au  Au419     1.0  0.32  0.8  0.0  1.0000
  Cu  Cu423     1.0  0.32  0.82  0.0  1.0000
  Cu  Cu424     1.0  0.32  0.8400000000000001  0.0  1.0000
  Cu  Cu425     1.0  0.32  0.8600000000000001  0.0  1.0000
  Au  Au420     1.0  0.32  0.88  0.0  1.0000
  Cu  Cu426     1.0  0.32  0.9  0.0  1.0000
  Cu  Cu427     1.0  0.32  0.92  0.0  1.0000
  Au  Au421     1.0  0.32  0.9400000000000001  0.0  1.0000
  Au  Au422     1.0  0.32  0.9600000000000001  0.0  1.0000
  Cu  Cu428     1.0  0.32  0.9800000000000001  0.0  1.0000
  Cu  Cu429     1.0  0.3400000000000001  0.0  0.0  1.0000
  Au  Au423     1.0  0.3400000000000001  0.02  0.0  1.0000
  Cu  Cu430     1.0  0.3400000000000001  0.04  0.0  1.0000
  Cu  Cu431     1.0  0.3400000000000001  0.060000000000000005  0.0  1.0000
  Au  Au424     1.0  0.3400000000000001  0.08  0.0  1.0000
  Cu  Cu432     1.0  0.3400000000000001  0.1  0.0  1.0000
  Au  Au425     1.0  0.3400000000000001  0.12000000000000001  0.0  1.0000
  Cu  Cu433     1.0  0.3400000000000001  0.14000000000000004  0.0  1.0000
  Au  Au426     1.0  0.3400000000000001  0.16  0.0  1.0000
  Cu  Cu434     1.0  0.3400000000000001  0.18000000000000002  0.0  1.0000
  Cu  Cu435     1.0  0.3400000000000001  0.2  0.0  1.0000
  Au  Au427     1.0  0.3400000000000001  0.22  0.0  1.0000
  Cu  Cu436     1.0  0.3400000000000001  0.24000000000000002  0.0  1.0000
  Au  Au428     1.0  0.3400000000000001  0.26  0.0  1.0000
  Cu  Cu437     1.0  0.3400000000000001  0.2800000000000001  0.0  1.0000
  Au  Au429     1.0  0.3400000000000001  0.30000000000000004  0.0  1.0000
  Au  Au430     1.0  0.3400000000000001  0.32  0.0  1.0000
  Cu  Cu438     1.0  0.3400000000000001  0.3400000000000001  0.0  1.0000
  Au  Au431     1.0  0.3400000000000001  0.36000000000000004  0.0  1.0000
  Au  Au432     1.0  0.3400000000000001  0.38  0.0  1.0000
  Cu  Cu439     1.0  0.3400000000000001  0.4  0.0  1.0000
  Au  Au433     1.0  0.3400000000000001  0.42000000000000004  0.0  1.0000
  Au  Au434     1.0  0.3400000000000001  0.44  0.0  1.0000
  Cu  Cu440     1.0  0.3400000000000001  0.46  0.0  1.0000
  Au  Au435     1.0  0.3400000000000001  0.48000000000000004  0.0  1.0000
  Cu  Cu441     1.0  0.3400000000000001  0.5  0.0  1.0000
  Au  Au436     1.0  0.3400000000000001  0.52  0.0  1.0000
  Cu  Cu442     1.0  0.3400000000000001  0.54  0.0  1.0000
  Au  Au437     1.0  0.3400000000000001  0.5600000000000002  0.0  1.0000
  Cu  Cu443     1.0  0.3400000000000001  0.5800000000000001  0.0  1.0000
  Au  Au438     1.0  0.3400000000000001  0.6000000000000001  0.0  1.0000
  Cu  Cu444     1.0  0.3400000000000001  0.62  0.0  1.0000
  Cu  Cu445     1.0  0.3400000000000001  0.64  0.0  1.0000
  Au  Au439     1.0  0.3400000000000001  0.66  0.0  1.0000
  Cu  Cu446     1.0  0.3400000000000001  0.6800000000000002  0.0  1.0000
  Au  Au440     1.0  0.3400000000000001  0.7000000000000001  0.0  1.0000
  Au  Au441     1.0  0.3400000000000001  0.7200000000000001  0.0  1.0000
  Au  Au442     1.0  0.3400000000000001  0.7400000000000001  0.0  1.0000
  Cu  Cu447     1.0  0.3400000000000001  0.76  0.0  1.0000
  Au  Au443     1.0  0.3400000000000001  0.78  0.0  1.0000
  Cu  Cu448     1.0  0.3400000000000001  0.8  0.0  1.0000
  Au  Au444     1.0  0.3400000000000001  0.82  0.0  1.0000
  Cu  Cu449     1.0  0.3400000000000001  0.8400000000000001  0.0  1.0000
  Au  Au445     1.0  0.3400000000000001  0.8600000000000001  0.0  1.0000
  Cu  Cu450     1.0  0.3400000000000001  0.88  0.0  1.0000
  Au  Au446     1.0  0.3400000000000001  0.9  0.0  1.0000
  Cu  Cu451     1.0  0.3400000000000001  0.92  0.0  1.0000
  Cu  Cu452     1.0  0.3400000000000001  0.9400000000000001  0.0  1.0000
  Cu  Cu453     1.0  0.3400000000000001  0.9600000000000001  0.0  1.0000
  Au  Au447     1.0  0.3400000000000001  0.9800000000000001  0.0  1.0000
  Cu  Cu454     1.0  0.36000000000000004  0.0  0.0  1.0000
  Cu  Cu455     1.0  0.36000000000000004  0.02  0.0  1.0000
  Au  Au448     1.0  0.36000000000000004  0.04  0.0  1.0000
  Cu  Cu456     1.0  0.36000000000000004  0.060000000000000005  0.0  1.0000
  Au  Au449     1.0  0.36000000000000004  0.08  0.0  1.0000
  Au  Au450     1.0  0.36000000000000004  0.1  0.0  1.0000
  Cu  Cu457     1.0  0.36000000000000004  0.12000000000000001  0.0  1.0000
  Au  Au451     1.0  0.36000000000000004  0.14000000000000004  0.0  1.0000
  Cu  Cu458     1.0  0.36000000000000004  0.16  0.0  1.0000
  Au  Au452     1.0  0.36000000000000004  0.18000000000000002  0.0  1.0000
  Au  Au453     1.0  0.36000000000000004  0.2  0.0  1.0000
  Cu  Cu459     1.0  0.36000000000000004  0.22  0.0  1.0000
  Au  Au454     1.0  0.36000000000000004  0.24000000000000002  0.0  1.0000
  Cu  Cu460     1.0  0.36000000000000004  0.26  0.0  1.0000
  Au  Au455     1.0  0.36000000000000004  0.2800000000000001  0.0  1.0000
  Cu  Cu461     1.0  0.36000000000000004  0.30000000000000004  0.0  1.0000
  Au  Au456     1.0  0.36000000000000004  0.32  0.0  1.0000
  Au  Au457     1.0  0.36000000000000004  0.3400000000000001  0.0  1.0000
  Au  Au458     1.0  0.36000000000000004  0.36000000000000004  0.0  1.0000
  Cu  Cu462     1.0  0.36000000000000004  0.38  0.0  1.0000
  Au  Au459     1.0  0.36000000000000004  0.4  0.0  1.0000
  Cu  Cu463     1.0  0.36000000000000004  0.42000000000000004  0.0  1.0000
  Cu  Cu464     1.0  0.36000000000000004  0.44  0.0  1.0000
  Au  Au460     1.0  0.36000000000000004  0.46  0.0  1.0000
  Cu  Cu465     1.0  0.36000000000000004  0.48000000000000004  0.0  1.0000
  Au  Au461     1.0  0.36000000000000004  0.5  0.0  1.0000
  Cu  Cu466     1.0  0.36000000000000004  0.52  0.0  1.0000
  Au  Au462     1.0  0.36000000000000004  0.54  0.0  1.0000
  Cu  Cu467     1.0  0.36000000000000004  0.5600000000000002  0.0  1.0000
  Au  Au463     1.0  0.36000000000000004  0.5800000000000001  0.0  1.0000
  Cu  Cu468     1.0  0.36000000000000004  0.6000000000000001  0.0  1.0000
  Au  Au464     1.0  0.36000000000000004  0.62  0.0  1.0000
  Au  Au465     1.0  0.36000000000000004  0.64  0.0  1.0000
  Cu  Cu469     1.0  0.36000000000000004  0.66  0.0  1.0000
  Au  Au466     1.0  0.36000000000000004  0.6800000000000002  0.0  1.0000
  Cu  Cu470     1.0  0.36000000000000004  0.7000000000000001  0.0  1.0000
  Au  Au467     1.0  0.36000000000000004  0.7200000000000001  0.0  1.0000
  Cu  Cu471     1.0  0.36000000000000004  0.7400000000000001  0.0  1.0000
  Au  Au468     1.0  0.36000000000000004  0.76  0.0  1.0000
  Cu  Cu472     1.0  0.36000000000000004  0.78  0.0  1.0000
  Au  Au469     1.0  0.36000000000000004  0.8  0.0  1.0000
  Cu  Cu473     1.0  0.36000000000000004  0.82  0.0  1.0000
  Au  Au470     1.0  0.36000000000000004  0.8400000000000001  0.0  1.0000
  Cu  Cu474     1.0  0.36000000000000004  0.8600000000000001  0.0  1.0000
  Au  Au471     1.0  0.36000000000000004  0.88  0.0  1.0000
  Cu  Cu475     1.0  0.36000000000000004  0.9  0.0  1.0000
  Au  Au472     1.0  0.36000000000000004  0.92  0.0  1.0000
  Cu  Cu476     1.0  0.36000000000000004  0.9400000000000001  0.0  1.0000
  Au  Au473     1.0  0.36000000000000004  0.9600000000000001  0.0  1.0000
  Cu  Cu477     1.0  0.36000000000000004  0.9800000000000001  0.0  1.0000
  Au  Au474     1.0  0.38  0.0  0.0  1.0000
  Au  Au475     1.0  0.38  0.02  0.0  1.0000
  Cu  Cu478     1.0  0.38  0.04  0.0  1.0000
  Au  Au476     1.0  0.38  0.060000000000000005  0.0  1.0000
  Cu  Cu479     1.0  0.38  0.08  0.0  1.0000
  Cu  Cu480     1.0  0.38  0.1  0.0  1.0000
  Au  Au477     1.0  0.38  0.12000000000000001  0.0  1.0000
  Cu  Cu481     1.0  0.38  0.14000000000000004  0.0  1.0000
  Au  Au478     1.0  0.38  0.16  0.0  1.0000
  Cu  Cu482     1.0  0.38  0.18000000000000002  0.0  1.0000
  Cu  Cu483     1.0  0.38  0.2  0.0  1.0000
  Au  Au479     1.0  0.38  0.22  0.0  1.0000
  Cu  Cu484     1.0  0.38  0.24000000000000002  0.0  1.0000
  Au  Au480     1.0  0.38  0.26  0.0  1.0000
  Cu  Cu485     1.0  0.38  0.2800000000000001  0.0  1.0000
  Au  Au481     1.0  0.38  0.30000000000000004  0.0  1.0000
  Au  Au482     1.0  0.38  0.32  0.0  1.0000
  Au  Au483     1.0  0.38  0.3400000000000001  0.0  1.0000
  Cu  Cu486     1.0  0.38  0.36000000000000004  0.0  1.0000
  Au  Au484     1.0  0.38  0.38  0.0  1.0000
  Cu  Cu487     1.0  0.38  0.4  0.0  1.0000
  Au  Au485     1.0  0.38  0.42000000000000004  0.0  1.0000
  Cu  Cu488     1.0  0.38  0.44  0.0  1.0000
  Cu  Cu489     1.0  0.38  0.46  0.0  1.0000
  Cu  Cu490     1.0  0.38  0.48000000000000004  0.0  1.0000
  Au  Au486     1.0  0.38  0.5  0.0  1.0000
  Au  Au487     1.0  0.38  0.52  0.0  1.0000
  Cu  Cu491     1.0  0.38  0.54  0.0  1.0000
  Au  Au488     1.0  0.38  0.5600000000000002  0.0  1.0000
  Cu  Cu492     1.0  0.38  0.5800000000000001  0.0  1.0000
  Au  Au489     1.0  0.38  0.6000000000000001  0.0  1.0000
  Au  Au490     1.0  0.38  0.62  0.0  1.0000
  Cu  Cu493     1.0  0.38  0.64  0.0  1.0000
  Au  Au491     1.0  0.38  0.66  0.0  1.0000
  Cu  Cu494     1.0  0.38  0.6800000000000002  0.0  1.0000
  Au  Au492     1.0  0.38  0.7000000000000001  0.0  1.0000
  Cu  Cu495     1.0  0.38  0.7200000000000001  0.0  1.0000
  Au  Au493     1.0  0.38  0.7400000000000001  0.0  1.0000
  Cu  Cu496     1.0  0.38  0.76  0.0  1.0000
  Au  Au494     1.0  0.38  0.78  0.0  1.0000
  Cu  Cu497     1.0  0.38  0.8  0.0  1.0000
  Au  Au495     1.0  0.38  0.82  0.0  1.0000
  Cu  Cu498     1.0  0.38  0.8400000000000001  0.0  1.0000
  Au  Au496     1.0  0.38  0.8600000000000001  0.0  1.0000
  Cu  Cu499     1.0  0.38  0.88  0.0  1.0000
  Au  Au497     1.0  0.38  0.9  0.0  1.0000
  Au  Au498     1.0  0.38  0.92  0.0  1.0000
  Cu  Cu500     1.0  0.38  0.9400000000000001  0.0  1.0000
  Cu  Cu501     1.0  0.38  0.9600000000000001  0.0  1.0000
  Au  Au499     1.0  0.38  0.9800000000000001  0.0  1.0000
  Cu  Cu502     1.0  0.4  0.0  0.0  1.0000
  Cu  Cu503     1.0  0.4  0.02  0.0  1.0000
  Au  Au500     1.0  0.4  0.04  0.0  1.0000
  Cu  Cu504     1.0  0.4  0.060000000000000005  0.0  1.0000
  Au  Au501     1.0  0.4  0.08  0.0  1.0000
  Au  Au502     1.0  0.4  0.1  0.0  1.0000
  Cu  Cu505     1.0  0.4  0.12000000000000001  0.0  1.0000
  Au  Au503     1.0  0.4  0.14000000000000004  0.0  1.0000
  Cu  Cu506     1.0  0.4  0.16  0.0  1.0000
  Au  Au504     1.0  0.4  0.18000000000000002  0.0  1.0000
  Au  Au505     1.0  0.4  0.2  0.0  1.0000
  Cu  Cu507     1.0  0.4  0.22  0.0  1.0000
  Cu  Cu508     1.0  0.4  0.24000000000000002  0.0  1.0000
  Cu  Cu509     1.0  0.4  0.26  0.0  1.0000
  Au  Au506     1.0  0.4  0.2800000000000001  0.0  1.0000
  Au  Au507     1.0  0.4  0.30000000000000004  0.0  1.0000
  Cu  Cu510     1.0  0.4  0.32  0.0  1.0000
  Cu  Cu511     1.0  0.4  0.3400000000000001  0.0  1.0000
  Au  Au508     1.0  0.4  0.36000000000000004  0.0  1.0000
  Au  Au509     1.0  0.4  0.38  0.0  1.0000
  Au  Au510     1.0  0.4  0.4  0.0  1.0000
  Cu  Cu512     1.0  0.4  0.42000000000000004  0.0  1.0000
  Au  Au511     1.0  0.4  0.44  0.0  1.0000
  Au  Au512     1.0  0.4  0.46  0.0  1.0000
  Au  Au513     1.0  0.4  0.48000000000000004  0.0  1.0000
  Cu  Cu513     1.0  0.4  0.5  0.0  1.0000
  Cu  Cu514     1.0  0.4  0.52  0.0  1.0000
  Au  Au514     1.0  0.4  0.54  0.0  1.0000
  Cu  Cu515     1.0  0.4  0.5600000000000002  0.0  1.0000
  Au  Au515     1.0  0.4  0.5800000000000001  0.0  1.0000
  Au  Au516     1.0  0.4  0.6000000000000001  0.0  1.0000
  Cu  Cu516     1.0  0.4  0.62  0.0  1.0000
  Au  Au517     1.0  0.4  0.64  0.0  1.0000
  Cu  Cu517     1.0  0.4  0.66  0.0  1.0000
  Au  Au518     1.0  0.4  0.6800000000000002  0.0  1.0000
  Au  Au519     1.0  0.4  0.7000000000000001  0.0  1.0000
  Cu  Cu518     1.0  0.4  0.7200000000000001  0.0  1.0000
  Cu  Cu519     1.0  0.4  0.7400000000000001  0.0  1.0000
  Au  Au520     1.0  0.4  0.76  0.0  1.0000
  Cu  Cu520     1.0  0.4  0.78  0.0  1.0000
  Cu  Cu521     1.0  0.4  0.8  0.0  1.0000
  Cu  Cu522     1.0  0.4  0.82  0.0  1.0000
  Au  Au521     1.0  0.4  0.8400000000000001  0.0  1.0000
  Cu  Cu523     1.0  0.4  0.8600000000000001  0.0  1.0000
  Au  Au522     1.0  0.4  0.88  0.0  1.0000
  Cu  Cu524     1.0  0.4  0.9  0.0  1.0000
  Cu  Cu525     1.0  0.4  0.92  0.0  1.0000
  Au  Au523     1.0  0.4  0.9400000000000001  0.0  1.0000
  Cu  Cu526     1.0  0.4  0.9600000000000001  0.0  1.0000
  Au  Au524     1.0  0.4  0.9800000000000001  0.0  1.0000
  Cu  Cu527     1.0  0.42000000000000004  0.0  0.0  1.0000
  Au  Au525     1.0  0.42000000000000004  0.02  0.0  1.0000
  Cu  Cu528     1.0  0.42000000000000004  0.04  0.0  1.0000
  Au  Au526     1.0  0.42000000000000004  0.060000000000000005  0.0  1.0000
  Cu  Cu529     1.0  0.42000000000000004  0.08  0.0  1.0000
  Cu  Cu530     1.0  0.42000000000000004  0.1  0.0  1.0000
  Au  Au527     1.0  0.42000000000000004  0.12000000000000001  0.0  1.0000
  Cu  Cu531     1.0  0.42000000000000004  0.14000000000000004  0.0  1.0000
  Cu  Cu532     1.0  0.42000000000000004  0.16  0.0  1.0000
  Cu  Cu533     1.0  0.42000000000000004  0.18000000000000002  0.0  1.0000
  Cu  Cu534     1.0  0.42000000000000004  0.2  0.0  1.0000
  Au  Au528     1.0  0.42000000000000004  0.22  0.0  1.0000
  Au  Au529     1.0  0.42000000000000004  0.24000000000000002  0.0  1.0000
  Au  Au530     1.0  0.42000000000000004  0.26  0.0  1.0000
  Au  Au531     1.0  0.42000000000000004  0.2800000000000001  0.0  1.0000
  Cu  Cu535     1.0  0.42000000000000004  0.30000000000000004  0.0  1.0000
  Au  Au532     1.0  0.42000000000000004  0.32  0.0  1.0000
  Au  Au533     1.0  0.42000000000000004  0.3400000000000001  0.0  1.0000
  Cu  Cu536     1.0  0.42000000000000004  0.36000000000000004  0.0  1.0000
  Cu  Cu537     1.0  0.42000000000000004  0.38  0.0  1.0000
  Au  Au534     1.0  0.42000000000000004  0.4  0.0  1.0000
  Au  Au535     1.0  0.42000000000000004  0.42000000000000004  0.0  1.0000
  Cu  Cu538     1.0  0.42000000000000004  0.44  0.0  1.0000
  Cu  Cu539     1.0  0.42000000000000004  0.46  0.0  1.0000
  Cu  Cu540     1.0  0.42000000000000004  0.48000000000000004  0.0  1.0000
  Au  Au536     1.0  0.42000000000000004  0.5  0.0  1.0000
  Au  Au537     1.0  0.42000000000000004  0.52  0.0  1.0000
  Cu  Cu541     1.0  0.42000000000000004  0.54  0.0  1.0000
  Au  Au538     1.0  0.42000000000000004  0.5600000000000002  0.0  1.0000
  Cu  Cu542     1.0  0.42000000000000004  0.5800000000000001  0.0  1.0000
  Cu  Cu543     1.0  0.42000000000000004  0.6000000000000001  0.0  1.0000
  Au  Au539     1.0  0.42000000000000004  0.62  0.0  1.0000
  Cu  Cu544     1.0  0.42000000000000004  0.64  0.0  1.0000
  Au  Au540     1.0  0.42000000000000004  0.66  0.0  1.0000
  Au  Au541     1.0  0.42000000000000004  0.6800000000000002  0.0  1.0000
  Cu  Cu545     1.0  0.42000000000000004  0.7000000000000001  0.0  1.0000
  Au  Au542     1.0  0.42000000000000004  0.7200000000000001  0.0  1.0000
  Au  Au543     1.0  0.42000000000000004  0.7400000000000001  0.0  1.0000
  Cu  Cu546     1.0  0.42000000000000004  0.76  0.0  1.0000
  Au  Au544     1.0  0.42000000000000004  0.78  0.0  1.0000
  Au  Au545     1.0  0.42000000000000004  0.8  0.0  1.0000
  Cu  Cu547     1.0  0.42000000000000004  0.82  0.0  1.0000
  Au  Au546     1.0  0.42000000000000004  0.8400000000000001  0.0  1.0000
  Cu  Cu548     1.0  0.42000000000000004  0.8600000000000001  0.0  1.0000
  Cu  Cu549     1.0  0.42000000000000004  0.88  0.0  1.0000
  Au  Au547     1.0  0.42000000000000004  0.9  0.0  1.0000
  Au  Au548     1.0  0.42000000000000004  0.92  0.0  1.0000
  Cu  Cu550     1.0  0.42000000000000004  0.9400000000000001  0.0  1.0000
  Au  Au549     1.0  0.42000000000000004  0.9600000000000001  0.0  1.0000
  Cu  Cu551     1.0  0.42000000000000004  0.9800000000000001  0.0  1.0000
  Au  Au550     1.0  0.44  0.0  0.0  1.0000
  Cu  Cu552     1.0  0.44  0.02  0.0  1.0000
  Au  Au551     1.0  0.44  0.04  0.0  1.0000
  Cu  Cu553     1.0  0.44  0.060000000000000005  0.0  1.0000
  Au  Au552     1.0  0.44  0.08  0.0  1.0000
  Cu  Cu554     1.0  0.44  0.1  0.0  1.0000
  Au  Au553     1.0  0.44  0.12000000000000001  0.0  1.0000
  Au  Au554     1.0  0.44  0.14000000000000004  0.0  1.0000
  Cu  Cu555     1.0  0.44  0.16  0.0  1.0000
  Au  Au555     1.0  0.44  0.18000000000000002  0.0  1.0000
  Cu  Cu556     1.0  0.44  0.2  0.0  1.0000
  Cu  Cu557     1.0  0.44  0.22  0.0  1.0000
  Cu  Cu558     1.0  0.44  0.24000000000000002  0.0  1.0000
  Au  Au556     1.0  0.44  0.26  0.0  1.0000
  Au  Au557     1.0  0.44  0.2800000000000001  0.0  1.0000
  Au  Au558     1.0  0.44  0.30000000000000004  0.0  1.0000
  Cu  Cu559     1.0  0.44  0.32  0.0  1.0000
  Cu  Cu560     1.0  0.44  0.3400000000000001  0.0  1.0000
  Au  Au559     1.0  0.44  0.36000000000000004  0.0  1.0000
  Cu  Cu561     1.0  0.44  0.38  0.0  1.0000
  Cu  Cu562     1.0  0.44  0.4  0.0  1.0000
  Au  Au560     1.0  0.44  0.42000000000000004  0.0  1.0000
  Cu  Cu563     1.0  0.44  0.44  0.0  1.0000
  Cu  Cu564     1.0  0.44  0.46  0.0  1.0000
  Au  Au561     1.0  0.44  0.48000000000000004  0.0  1.0000
  Cu  Cu565     1.0  0.44  0.5  0.0  1.0000
  Au  Au562     1.0  0.44  0.52  0.0  1.0000
  Au  Au563     1.0  0.44  0.54  0.0  1.0000
  Cu  Cu566     1.0  0.44  0.5600000000000002  0.0  1.0000
  Au  Au564     1.0  0.44  0.5800000000000001  0.0  1.0000
  Au  Au565     1.0  0.44  0.6000000000000001  0.0  1.0000
  Cu  Cu567     1.0  0.44  0.62  0.0  1.0000
  Cu  Cu568     1.0  0.44  0.64  0.0  1.0000
  Au  Au566     1.0  0.44  0.66  0.0  1.0000
  Cu  Cu569     1.0  0.44  0.6800000000000002  0.0  1.0000
  Au  Au567     1.0  0.44  0.7000000000000001  0.0  1.0000
  Au  Au568     1.0  0.44  0.7200000000000001  0.0  1.0000
  Cu  Cu570     1.0  0.44  0.7400000000000001  0.0  1.0000
  Cu  Cu571     1.0  0.44  0.76  0.0  1.0000
  Au  Au569     1.0  0.44  0.78  0.0  1.0000
  Cu  Cu572     1.0  0.44  0.8  0.0  1.0000
  Au  Au570     1.0  0.44  0.82  0.0  1.0000
  Cu  Cu573     1.0  0.44  0.8400000000000001  0.0  1.0000
  Au  Au571     1.0  0.44  0.8600000000000001  0.0  1.0000
  Au  Au572     1.0  0.44  0.88  0.0  1.0000
  Cu  Cu574     1.0  0.44  0.9  0.0  1.0000
  Cu  Cu575     1.0  0.44  0.92  0.0  1.0000
  Au  Au573     1.0  0.44  0.9400000000000001  0.0  1.0000
  Cu  Cu576     1.0  0.44  0.9600000000000001  0.0  1.0000
  Au  Au574     1.0  0.44  0.9800000000000001  0.0  1.0000
  Cu  Cu577     1.0  0.46  0.0  0.0  1.0000
  Au  Au575     1.0  0.46  0.02  0.0  1.0000
  Cu  Cu578     1.0  0.46  0.04  0.0  1.0000
  Au  Au576     1.0  0.46  0.060000000000000005  0.0  1.0000
  Cu  Cu579     1.0  0.46  0.08  0.0  1.0000
  Au  Au577     1.0  0.46  0.1  0.0  1.0000
  Au  Au578     1.0  0.46  0.12000000000000001  0.0  1.0000
  Cu  Cu580     1.0  0.46  0.14000000000000004  0.0  1.0000
  Au  Au579     1.0  0.46  0.16  0.0  1.0000
  Au  Au580     1.0  0.46  0.18000000000000002  0.0  1.0000
  Cu  Cu581     1.0  0.46  0.2  0.0  1.0000
  Au  Au581     1.0  0.46  0.22  0.0  1.0000
  Cu  Cu582     1.0  0.46  0.24000000000000002  0.0  1.0000
  Au  Au582     1.0  0.46  0.26  0.0  1.0000
  Au  Au583     1.0  0.46  0.2800000000000001  0.0  1.0000
  Cu  Cu583     1.0  0.46  0.30000000000000004  0.0  1.0000
  Au  Au584     1.0  0.46  0.32  0.0  1.0000
  Cu  Cu584     1.0  0.46  0.3400000000000001  0.0  1.0000
  Au  Au585     1.0  0.46  0.36000000000000004  0.0  1.0000
  Cu  Cu585     1.0  0.46  0.38  0.0  1.0000
  Au  Au586     1.0  0.46  0.4  0.0  1.0000
  Cu  Cu586     1.0  0.46  0.42000000000000004  0.0  1.0000
  Au  Au587     1.0  0.46  0.44  0.0  1.0000
  Au  Au588     1.0  0.46  0.46  0.0  1.0000
  Cu  Cu587     1.0  0.46  0.48000000000000004  0.0  1.0000
  Au  Au589     1.0  0.46  0.5  0.0  1.0000
  Cu  Cu588     1.0  0.46  0.52  0.0  1.0000
  Au  Au590     1.0  0.46  0.54  0.0  1.0000
  Cu  Cu589     1.0  0.46  0.5600000000000002  0.0  1.0000
  Au  Au591     1.0  0.46  0.5800000000000001  0.0  1.0000
  Cu  Cu590     1.0  0.46  0.6000000000000001  0.0  1.0000
  Au  Au592     1.0  0.46  0.62  0.0  1.0000
  Au  Au593     1.0  0.46  0.64  0.0  1.0000
  Cu  Cu591     1.0  0.46  0.66  0.0  1.0000
  Au  Au594     1.0  0.46  0.6800000000000002  0.0  1.0000
  Cu  Cu592     1.0  0.46  0.7000000000000001  0.0  1.0000
  Au  Au595     1.0  0.46  0.7200000000000001  0.0  1.0000
  Cu  Cu593     1.0  0.46  0.7400000000000001  0.0  1.0000
  Au  Au596     1.0  0.46  0.76  0.0  1.0000
  Cu  Cu594     1.0  0.46  0.78  0.0  1.0000
  Cu  Cu595     1.0  0.46  0.8  0.0  1.0000
  Cu  Cu596     1.0  0.46  0.82  0.0  1.0000
  Au  Au597     1.0  0.46  0.8400000000000001  0.0  1.0000
  Cu  Cu597     1.0  0.46  0.8600000000000001  0.0  1.0000
  Au  Au598     1.0  0.46  0.88  0.0  1.0000
  Au  Au599     1.0  0.46  0.9  0.0  1.0000
  Cu  Cu598     1.0  0.46  0.92  0.0  1.0000
  Au  Au600     1.0  0.46  0.9400000000000001  0.0  1.0000
  Cu  Cu599     1.0  0.46  0.9600000000000001  0.0  1.0000
  Cu  Cu600     1.0  0.46  0.9800000000000001  0.0  1.0000
  Au  Au601     1.0  0.48000000000000004  0.0  0.0  1.0000
  Cu  Cu601     1.0  0.48000000000000004  0.02  0.0  1.0000
  Au  Au602     1.0  0.48000000000000004  0.04  0.0  1.0000
  Cu  Cu602     1.0  0.48000000000000004  0.060000000000000005  0.0  1.0000
  Au  Au603     1.0  0.48000000000000004  0.08  0.0  1.0000
  Cu  Cu603     1.0  0.48000000000000004  0.1  0.0  1.0000
  Au  Au604     1.0  0.48000000000000004  0.12000000000000001  0.0  1.0000
  Au  Au605     1.0  0.48000000000000004  0.14000000000000004  0.0  1.0000
  Cu  Cu604     1.0  0.48000000000000004  0.16  0.0  1.0000
  Cu  Cu605     1.0  0.48000000000000004  0.18000000000000002  0.0  1.0000
  Au  Au606     1.0  0.48000000000000004  0.2  0.0  1.0000
  Cu  Cu606     1.0  0.48000000000000004  0.22  0.0  1.0000
  Au  Au607     1.0  0.48000000000000004  0.24000000000000002  0.0  1.0000
  Cu  Cu607     1.0  0.48000000000000004  0.26  0.0  1.0000
  Cu  Cu608     1.0  0.48000000000000004  0.2800000000000001  0.0  1.0000
  Au  Au608     1.0  0.48000000000000004  0.30000000000000004  0.0  1.0000
  Cu  Cu609     1.0  0.48000000000000004  0.32  0.0  1.0000
  Au  Au609     1.0  0.48000000000000004  0.3400000000000001  0.0  1.0000
  Cu  Cu610     1.0  0.48000000000000004  0.36000000000000004  0.0  1.0000
  Au  Au610     1.0  0.48000000000000004  0.38  0.0  1.0000
  Cu  Cu611     1.0  0.48000000000000004  0.4  0.0  1.0000
  Au  Au611     1.0  0.48000000000000004  0.42000000000000004  0.0  1.0000
  Cu  Cu612     1.0  0.48000000000000004  0.44  0.0  1.0000
  Cu  Cu613     1.0  0.48000000000000004  0.46  0.0  1.0000
  Au  Au612     1.0  0.48000000000000004  0.48000000000000004  0.0  1.0000
  Cu  Cu614     1.0  0.48000000000000004  0.5  0.0  1.0000
  Au  Au613     1.0  0.48000000000000004  0.52  0.0  1.0000
  Cu  Cu615     1.0  0.48000000000000004  0.54  0.0  1.0000
  Au  Au614     1.0  0.48000000000000004  0.5600000000000002  0.0  1.0000
  Cu  Cu616     1.0  0.48000000000000004  0.5800000000000001  0.0  1.0000
  Au  Au615     1.0  0.48000000000000004  0.6000000000000001  0.0  1.0000
  Au  Au616     1.0  0.48000000000000004  0.62  0.0  1.0000
  Au  Au617     1.0  0.48000000000000004  0.64  0.0  1.0000
  Cu  Cu617     1.0  0.48000000000000004  0.66  0.0  1.0000
  Au  Au618     1.0  0.48000000000000004  0.6800000000000002  0.0  1.0000
  Cu  Cu618     1.0  0.48000000000000004  0.7000000000000001  0.0  1.0000
  Au  Au619     1.0  0.48000000000000004  0.7200000000000001  0.0  1.0000
  Au  Au620     1.0  0.48000000000000004  0.7400000000000001  0.0  1.0000
  Au  Au621     1.0  0.48000000000000004  0.76  0.0  1.0000
  Cu  Cu619     1.0  0.48000000000000004  0.78  0.0  1.0000
  Au  Au622     1.0  0.48000000000000004  0.8  0.0  1.0000
  Au  Au623     1.0  0.48000000000000004  0.82  0.0  1.0000
  Cu  Cu620     1.0  0.48000000000000004  0.8400000000000001  0.0  1.0000
  Au  Au624     1.0  0.48000000000000004  0.8600000000000001  0.0  1.0000
  Cu  Cu621     1.0  0.48000000000000004  0.88  0.0  1.0000
  Cu  Cu622     1.0  0.48000000000000004  0.9  0.0  1.0000
  Au  Au625     1.0  0.48000000000000004  0.92  0.0  1.0000
  Cu  Cu623     1.0  0.48000000000000004  0.9400000000000001  0.0  1.0000
  Au  Au626     1.0  0.48000000000000004  0.9600000000000001  0.0  1.0000
  Cu  Cu624     1.0  0.48000000000000004  0.9800000000000001  0.0  1.0000
  Cu  Cu625     1.0  0.5  0.0  0.0  1.0000
  Cu  Cu626     1.0  0.5  0.02  0.0  1.0000
  Au  Au627     1.0  0.5  0.04  0.0  1.0000
  Au  Au628     1.0  0.5  0.060000000000000005  0.0  1.0000
  Cu  Cu627     1.0  0.5  0.08  0.0  1.0000
  Au  Au629     1.0  0.5  0.1  0.0  1.0000
  Au  Au630     1.0  0.5  0.12000000000000001  0.0  1.0000
  Cu  Cu628     1.0  0.5  0.14000000000000004  0.0  1.0000
  Au  Au631     1.0  0.5  0.16  0.0  1.0000
  Cu  Cu629     1.0  0.5  0.18000000000000002  0.0  1.0000
  Cu  Cu630     1.0  0.5  0.2  0.0  1.0000
  Au  Au632     1.0  0.5  0.22  0.0  1.0000
  Cu  Cu631     1.0  0.5  0.24000000000000002  0.0  1.0000
  Au  Au633     1.0  0.5  0.26  0.0  1.0000
  Au  Au634     1.0  0.5  0.2800000000000001  0.0  1.0000
  Cu  Cu632     1.0  0.5  0.30000000000000004  0.0  1.0000
  Au  Au635     1.0  0.5  0.32  0.0  1.0000
  Cu  Cu633     1.0  0.5  0.3400000000000001  0.0  1.0000
  Au  Au636     1.0  0.5  0.36000000000000004  0.0  1.0000
  Cu  Cu634     1.0  0.5  0.38  0.0  1.0000
  Au  Au637     1.0  0.5  0.4  0.0  1.0000
  Cu  Cu635     1.0  0.5  0.42000000000000004  0.0  1.0000
  Au  Au638     1.0  0.5  0.44  0.0  1.0000
  Au  Au639     1.0  0.5  0.46  0.0  1.0000
  Cu  Cu636     1.0  0.5  0.48000000000000004  0.0  1.0000
  Cu  Cu637     1.0  0.5  0.5  0.0  1.0000
  Cu  Cu638     1.0  0.5  0.52  0.0  1.0000
  Au  Au640     1.0  0.5  0.54  0.0  1.0000
  Cu  Cu639     1.0  0.5  0.5600000000000002  0.0  1.0000
  Au  Au641     1.0  0.5  0.5800000000000001  0.0  1.0000
  Au  Au642     1.0  0.5  0.6000000000000001  0.0  1.0000
  Cu  Cu640     1.0  0.5  0.62  0.0  1.0000
  Cu  Cu641     1.0  0.5  0.64  0.0  1.0000
  Au  Au643     1.0  0.5  0.66  0.0  1.0000
  Cu  Cu642     1.0  0.5  0.6800000000000002  0.0  1.0000
  Au  Au644     1.0  0.5  0.7000000000000001  0.0  1.0000
  Cu  Cu643     1.0  0.5  0.7200000000000001  0.0  1.0000
  Cu  Cu644     1.0  0.5  0.7400000000000001  0.0  1.0000
  Cu  Cu645     1.0  0.5  0.76  0.0  1.0000
  Cu  Cu646     1.0  0.5  0.78  0.0  1.0000
  Au  Au645     1.0  0.5  0.8  0.0  1.0000
  Cu  Cu647     1.0  0.5  0.82  0.0  1.0000
  Au  Au646     1.0  0.5  0.8400000000000001  0.0  1.0000
  Cu  Cu648     1.0  0.5  0.8600000000000001  0.0  1.0000
  Au  Au647     1.0  0.5  0.88  0.0  1.0000
  Cu  Cu649     1.0  0.5  0.9  0.0  1.0000
  Cu  Cu650     1.0  0.5  0.92  0.0  1.0000
  Au  Au648     1.0  0.5  0.9400000000000001  0.0  1.0000
  Cu  Cu651     1.0  0.5  0.9600000000000001  0.0  1.0000
  Au  Au649     1.0  0.5  0.9800000000000001  0.0  1.0000
  Au  Au650     1.0  0.52  0.0  0.0  1.0000
  Cu  Cu652     1.0  0.52  0.02  0.0  1.0000
  Au  Au651     1.0  0.52  0.04  0.0  1.0000
  Cu  Cu653     1.0  0.52  0.060000000000000005  0.0  1.0000
  Cu  Cu654     1.0  0.52  0.08  0.0  1.0000
  Au  Au652     1.0  0.52  0.1  0.0  1.0000
  Cu  Cu655     1.0  0.52  0.12000000000000001  0.0  1.0000
  Au  Au653     1.0  0.52  0.14000000000000004  0.0  1.0000
  Cu  Cu656     1.0  0.52  0.16  0.0  1.0000
  Au  Au654     1.0  0.52  0.18000000000000002  0.0  1.0000
  Cu  Cu657     1.0  0.52  0.2  0.0  1.0000
  Cu  Cu658     1.0  0.52  0.22  0.0  1.0000
  Au  Au655     1.0  0.52  0.24000000000000002  0.0  1.0000
  Cu  Cu659     1.0  0.52  0.26  0.0  1.0000
  Au  Au656     1.0  0.52  0.2800000000000001  0.0  1.0000
  Au  Au657     1.0  0.52  0.30000000000000004  0.0  1.0000
  Cu  Cu660     1.0  0.52  0.32  0.0  1.0000
  Au  Au658     1.0  0.52  0.3400000000000001  0.0  1.0000
  Cu  Cu661     1.0  0.52  0.36000000000000004  0.0  1.0000
  Au  Au659     1.0  0.52  0.38  0.0  1.0000
  Au  Au660     1.0  0.52  0.4  0.0  1.0000
  Au  Au661     1.0  0.52  0.42000000000000004  0.0  1.0000
  Cu  Cu662     1.0  0.52  0.44  0.0  1.0000
  Au  Au662     1.0  0.52  0.46  0.0  1.0000
  Cu  Cu663     1.0  0.52  0.48000000000000004  0.0  1.0000
  Cu  Cu664     1.0  0.52  0.5  0.0  1.0000
  Au  Au663     1.0  0.52  0.52  0.0  1.0000
  Cu  Cu665     1.0  0.52  0.54  0.0  1.0000
  Au  Au664     1.0  0.52  0.5600000000000002  0.0  1.0000
  Au  Au665     1.0  0.52  0.5800000000000001  0.0  1.0000
  Cu  Cu666     1.0  0.52  0.6000000000000001  0.0  1.0000
  Cu  Cu667     1.0  0.52  0.62  0.0  1.0000
  Au  Au666     1.0  0.52  0.64  0.0  1.0000
  Cu  Cu668     1.0  0.52  0.66  0.0  1.0000
  Au  Au667     1.0  0.52  0.6800000000000002  0.0  1.0000
  Au  Au668     1.0  0.52  0.7000000000000001  0.0  1.0000
  Au  Au669     1.0  0.52  0.7200000000000001  0.0  1.0000
  Cu  Cu669     1.0  0.52  0.7400000000000001  0.0  1.0000
  Au  Au670     1.0  0.52  0.76  0.0  1.0000
  Cu  Cu670     1.0  0.52  0.78  0.0  1.0000
  Cu  Cu671     1.0  0.52  0.8  0.0  1.0000
  Au  Au671     1.0  0.52  0.82  0.0  1.0000
  Cu  Cu672     1.0  0.52  0.8400000000000001  0.0  1.0000
  Au  Au672     1.0  0.52  0.8600000000000001  0.0  1.0000
  Au  Au673     1.0  0.52  0.88  0.0  1.0000
  Cu  Cu673     1.0  0.52  0.9  0.0  1.0000
  Cu  Cu674     1.0  0.52  0.92  0.0  1.0000
  Cu  Cu675     1.0  0.52  0.9400000000000001  0.0  1.0000
  Au  Au674     1.0  0.52  0.9600000000000001  0.0  1.0000
  Au  Au675     1.0  0.52  0.9800000000000001  0.0  1.0000
  Cu  Cu676     1.0  0.54  0.0  0.0  1.0000
  Cu  Cu677     1.0  0.54  0.02  0.0  1.0000
  Cu  Cu678     1.0  0.54  0.04  0.0  1.0000
  Au  Au676     1.0  0.54  0.060000000000000005  0.0  1.0000
  Au  Au677     1.0  0.54  0.08  0.0  1.0000
  Cu  Cu679     1.0  0.54  0.1  0.0  1.0000
  Cu  Cu680     1.0  0.54  0.12000000000000001  0.0  1.0000
  Cu  Cu681     1.0  0.54  0.14000000000000004  0.0  1.0000
  Au  Au678     1.0  0.54  0.16  0.0  1.0000
  Cu  Cu682     1.0  0.54  0.18000000000000002  0.0  1.0000
  Au  Au679     1.0  0.54  0.2  0.0  1.0000
  Au  Au680     1.0  0.54  0.22  0.0  1.0000
  Cu  Cu683     1.0  0.54  0.24000000000000002  0.0  1.0000
  Au  Au681     1.0  0.54  0.26  0.0  1.0000
  Cu  Cu684     1.0  0.54  0.2800000000000001  0.0  1.0000
  Cu  Cu685     1.0  0.54  0.30000000000000004  0.0  1.0000
  Au  Au682     1.0  0.54  0.32  0.0  1.0000
  Cu  Cu686     1.0  0.54  0.3400000000000001  0.0  1.0000
  Au  Au683     1.0  0.54  0.36000000000000004  0.0  1.0000
  Au  Au684     1.0  0.54  0.38  0.0  1.0000
  Cu  Cu687     1.0  0.54  0.4  0.0  1.0000
  Au  Au685     1.0  0.54  0.42000000000000004  0.0  1.0000
  Au  Au686     1.0  0.54  0.44  0.0  1.0000
  Cu  Cu688     1.0  0.54  0.46  0.0  1.0000
  Cu  Cu689     1.0  0.54  0.48000000000000004  0.0  1.0000
  Au  Au687     1.0  0.54  0.5  0.0  1.0000
  Cu  Cu690     1.0  0.54  0.52  0.0  1.0000
  Au  Au688     1.0  0.54  0.54  0.0  1.0000
  Au  Au689     1.0  0.54  0.5600000000000002  0.0  1.0000
  Cu  Cu691     1.0  0.54  0.5800000000000001  0.0  1.0000
  Au  Au690     1.0  0.54  0.6000000000000001  0.0  1.0000
  Cu  Cu692     1.0  0.54  0.62  0.0  1.0000
  Cu  Cu693     1.0  0.54  0.64  0.0  1.0000
  Cu  Cu694     1.0  0.54  0.66  0.0  1.0000
  Au  Au691     1.0  0.54  0.6800000000000002  0.0  1.0000
  Cu  Cu695     1.0  0.54  0.7000000000000001  0.0  1.0000
  Au  Au692     1.0  0.54  0.7200000000000001  0.0  1.0000
  Cu  Cu696     1.0  0.54  0.7400000000000001  0.0  1.0000
  Cu  Cu697     1.0  0.54  0.76  0.0  1.0000
  Au  Au693     1.0  0.54  0.78  0.0  1.0000
  Au  Au694     1.0  0.54  0.8  0.0  1.0000
  Cu  Cu698     1.0  0.54  0.82  0.0  1.0000
  Au  Au695     1.0  0.54  0.8400000000000001  0.0  1.0000
  Cu  Cu699     1.0  0.54  0.8600000000000001  0.0  1.0000
  Au  Au696     1.0  0.54  0.88  0.0  1.0000
  Cu  Cu700     1.0  0.54  0.9  0.0  1.0000
  Au  Au697     1.0  0.54  0.92  0.0  1.0000
  Au  Au698     1.0  0.54  0.9400000000000001  0.0  1.0000
  Cu  Cu701     1.0  0.54  0.9600000000000001  0.0  1.0000
  Au  Au699     1.0  0.54  0.9800000000000001  0.0  1.0000
  Au  Au700     1.0  0.5600000000000002  0.0  0.0  1.0000
  Cu  Cu702     1.0  0.5600000000000002  0.02  0.0  1.0000
  Au  Au701     1.0  0.5600000000000002  0.04  0.0  1.0000
  Cu  Cu703     1.0  0.5600000000000002  0.060000000000000005  0.0  1.0000
  Au  Au702     1.0  0.5600000000000002  0.08  0.0  1.0000
  Cu  Cu704     1.0  0.5600000000000002  0.1  0.0  1.0000
  Au  Au703     1.0  0.5600000000000002  0.12000000000000001  0.0  1.0000
  Au  Au704     1.0  0.5600000000000002  0.14000000000000004  0.0  1.0000
  Cu  Cu705     1.0  0.5600000000000002  0.16  0.0  1.0000
  Au  Au705     1.0  0.5600000000000002  0.18000000000000002  0.0  1.0000
  Au  Au706     1.0  0.5600000000000002  0.2  0.0  1.0000
  Au  Au707     1.0  0.5600000000000002  0.22  0.0  1.0000
  Au  Au708     1.0  0.5600000000000002  0.24000000000000002  0.0  1.0000
  Cu  Cu706     1.0  0.5600000000000002  0.26  0.0  1.0000
  Cu  Cu707     1.0  0.5600000000000002  0.2800000000000001  0.0  1.0000
  Au  Au709     1.0  0.5600000000000002  0.30000000000000004  0.0  1.0000
  Cu  Cu708     1.0  0.5600000000000002  0.32  0.0  1.0000
  Au  Au710     1.0  0.5600000000000002  0.3400000000000001  0.0  1.0000
  Cu  Cu709     1.0  0.5600000000000002  0.36000000000000004  0.0  1.0000
  Au  Au711     1.0  0.5600000000000002  0.38  0.0  1.0000
  Cu  Cu710     1.0  0.5600000000000002  0.4  0.0  1.0000
  Au  Au712     1.0  0.5600000000000002  0.42000000000000004  0.0  1.0000
  Cu  Cu711     1.0  0.5600000000000002  0.44  0.0  1.0000
  Au  Au713     1.0  0.5600000000000002  0.46  0.0  1.0000
  Au  Au714     1.0  0.5600000000000002  0.48000000000000004  0.0  1.0000
  Cu  Cu712     1.0  0.5600000000000002  0.5  0.0  1.0000
  Au  Au715     1.0  0.5600000000000002  0.52  0.0  1.0000
  Au  Au716     1.0  0.5600000000000002  0.54  0.0  1.0000
  Cu  Cu713     1.0  0.5600000000000002  0.5600000000000002  0.0  1.0000
  Au  Au717     1.0  0.5600000000000002  0.5800000000000001  0.0  1.0000
  Cu  Cu714     1.0  0.5600000000000002  0.6000000000000001  0.0  1.0000
  Au  Au718     1.0  0.5600000000000002  0.62  0.0  1.0000
  Cu  Cu715     1.0  0.5600000000000002  0.64  0.0  1.0000
  Au  Au719     1.0  0.5600000000000002  0.66  0.0  1.0000
  Cu  Cu716     1.0  0.5600000000000002  0.6800000000000002  0.0  1.0000
  Au  Au720     1.0  0.5600000000000002  0.7000000000000001  0.0  1.0000
  Au  Au721     1.0  0.5600000000000002  0.7200000000000001  0.0  1.0000
  Cu  Cu717     1.0  0.5600000000000002  0.7400000000000001  0.0  1.0000
  Au  Au722     1.0  0.5600000000000002  0.76  0.0  1.0000
  Cu  Cu718     1.0  0.5600000000000002  0.78  0.0  1.0000
  Au  Au723     1.0  0.5600000000000002  0.8  0.0  1.0000
  Cu  Cu719     1.0  0.5600000000000002  0.82  0.0  1.0000
  Au  Au724     1.0  0.5600000000000002  0.8400000000000001  0.0  1.0000
  Cu  Cu720     1.0  0.5600000000000002  0.8600000000000001  0.0  1.0000
  Au  Au725     1.0  0.5600000000000002  0.88  0.0  1.0000
  Cu  Cu721     1.0  0.5600000000000002  0.9  0.0  1.0000
  Cu  Cu722     1.0  0.5600000000000002  0.92  0.0  1.0000
  Au  Au726     1.0  0.5600000000000002  0.9400000000000001  0.0  1.0000
  Cu  Cu723     1.0  0.5600000000000002  0.9600000000000001  0.0  1.0000
  Au  Au727     1.0  0.5600000000000002  0.9800000000000001  0.0  1.0000
  Cu  Cu724     1.0  0.5800000000000001  0.0  0.0  1.0000
  Au  Au728     1.0  0.5800000000000001  0.02  0.0  1.0000
  Cu  Cu725     1.0  0.5800000000000001  0.04  0.0  1.0000
  Au  Au729     1.0  0.5800000000000001  0.060000000000000005  0.0  1.0000
  Au  Au730     1.0  0.5800000000000001  0.08  0.0  1.0000
  Au  Au731     1.0  0.5800000000000001  0.1  0.0  1.0000
  Cu  Cu726     1.0  0.5800000000000001  0.12000000000000001  0.0  1.0000
  Au  Au732     1.0  0.5800000000000001  0.14000000000000004  0.0  1.0000
  Cu  Cu727     1.0  0.5800000000000001  0.16  0.0  1.0000
  Cu  Cu728     1.0  0.5800000000000001  0.18000000000000002  0.0  1.0000
  Au  Au733     1.0  0.5800000000000001  0.2  0.0  1.0000
  Cu  Cu729     1.0  0.5800000000000001  0.22  0.0  1.0000
  Cu  Cu730     1.0  0.5800000000000001  0.24000000000000002  0.0  1.0000
  Au  Au734     1.0  0.5800000000000001  0.26  0.0  1.0000
  Au  Au735     1.0  0.5800000000000001  0.2800000000000001  0.0  1.0000
  Cu  Cu731     1.0  0.5800000000000001  0.30000000000000004  0.0  1.0000
  Au  Au736     1.0  0.5800000000000001  0.32  0.0  1.0000
  Cu  Cu732     1.0  0.5800000000000001  0.3400000000000001  0.0  1.0000
  Au  Au737     1.0  0.5800000000000001  0.36000000000000004  0.0  1.0000
  Cu  Cu733     1.0  0.5800000000000001  0.38  0.0  1.0000
  Au  Au738     1.0  0.5800000000000001  0.4  0.0  1.0000
  Cu  Cu734     1.0  0.5800000000000001  0.42000000000000004  0.0  1.0000
  Au  Au739     1.0  0.5800000000000001  0.44  0.0  1.0000
  Cu  Cu735     1.0  0.5800000000000001  0.46  0.0  1.0000
  Cu  Cu736     1.0  0.5800000000000001  0.48000000000000004  0.0  1.0000
  Cu  Cu737     1.0  0.5800000000000001  0.5  0.0  1.0000
  Cu  Cu738     1.0  0.5800000000000001  0.52  0.0  1.0000
  Au  Au740     1.0  0.5800000000000001  0.54  0.0  1.0000
  Cu  Cu739     1.0  0.5800000000000001  0.5600000000000002  0.0  1.0000
  Au  Au741     1.0  0.5800000000000001  0.5800000000000001  0.0  1.0000
  Cu  Cu740     1.0  0.5800000000000001  0.6000000000000001  0.0  1.0000
  Cu  Cu741     1.0  0.5800000000000001  0.62  0.0  1.0000
  Au  Au742     1.0  0.5800000000000001  0.64  0.0  1.0000
  Cu  Cu742     1.0  0.5800000000000001  0.66  0.0  1.0000
  Au  Au743     1.0  0.5800000000000001  0.6800000000000002  0.0  1.0000
  Cu  Cu743     1.0  0.5800000000000001  0.7000000000000001  0.0  1.0000
  Cu  Cu744     1.0  0.5800000000000001  0.7200000000000001  0.0  1.0000
  Au  Au744     1.0  0.5800000000000001  0.7400000000000001  0.0  1.0000
  Cu  Cu745     1.0  0.5800000000000001  0.76  0.0  1.0000
  Cu  Cu746     1.0  0.5800000000000001  0.78  0.0  1.0000
  Au  Au745     1.0  0.5800000000000001  0.8  0.0  1.0000
  Cu  Cu747     1.0  0.5800000000000001  0.82  0.0  1.0000
  Cu  Cu748     1.0  0.5800000000000001  0.8400000000000001  0.0  1.0000
  Au  Au746     1.0  0.5800000000000001  0.8600000000000001  0.0  1.0000
  Cu  Cu749     1.0  0.5800000000000001  0.88  0.0  1.0000
  Au  Au747     1.0  0.5800000000000001  0.9  0.0  1.0000
  Au  Au748     1.0  0.5800000000000001  0.92  0.0  1.0000
  Cu  Cu750     1.0  0.5800000000000001  0.9400000000000001  0.0  1.0000
  Au  Au749     1.0  0.5800000000000001  0.9600000000000001  0.0  1.0000
  Cu  Cu751     1.0  0.5800000000000001  0.9800000000000001  0.0  1.0000
  Cu  Cu752     1.0  0.6000000000000001  0.0  0.0  1.0000
  Au  Au750     1.0  0.6000000000000001  0.02  0.0  1.0000
  Au  Au751     1.0  0.6000000000000001  0.04  0.0  1.0000
  Cu  Cu753     1.0  0.6000000000000001  0.060000000000000005  0.0  1.0000
  Au  Au752     1.0  0.6000000000000001  0.08  0.0  1.0000
  Cu  Cu754     1.0  0.6000000000000001  0.1  0.0  1.0000
  Au  Au753     1.0  0.6000000000000001  0.12000000000000001  0.0  1.0000
  Cu  Cu755     1.0  0.6000000000000001  0.14000000000000004  0.0  1.0000
  Au  Au754     1.0  0.6000000000000001  0.16  0.0  1.0000
  Cu  Cu756     1.0  0.6000000000000001  0.18000000000000002  0.0  1.0000
  Cu  Cu757     1.0  0.6000000000000001  0.2  0.0  1.0000
  Au  Au755     1.0  0.6000000000000001  0.22  0.0  1.0000
  Cu  Cu758     1.0  0.6000000000000001  0.24000000000000002  0.0  1.0000
  Cu  Cu759     1.0  0.6000000000000001  0.26  0.0  1.0000
  Cu  Cu760     1.0  0.6000000000000001  0.2800000000000001  0.0  1.0000
  Au  Au756     1.0  0.6000000000000001  0.30000000000000004  0.0  1.0000
  Cu  Cu761     1.0  0.6000000000000001  0.32  0.0  1.0000
  Au  Au757     1.0  0.6000000000000001  0.3400000000000001  0.0  1.0000
  Cu  Cu762     1.0  0.6000000000000001  0.36000000000000004  0.0  1.0000
  Au  Au758     1.0  0.6000000000000001  0.38  0.0  1.0000
  Cu  Cu763     1.0  0.6000000000000001  0.4  0.0  1.0000
  Au  Au759     1.0  0.6000000000000001  0.42000000000000004  0.0  1.0000
  Cu  Cu764     1.0  0.6000000000000001  0.44  0.0  1.0000
  Au  Au760     1.0  0.6000000000000001  0.46  0.0  1.0000
  Cu  Cu765     1.0  0.6000000000000001  0.48000000000000004  0.0  1.0000
  Au  Au761     1.0  0.6000000000000001  0.5  0.0  1.0000
  Au  Au762     1.0  0.6000000000000001  0.52  0.0  1.0000
  Cu  Cu766     1.0  0.6000000000000001  0.54  0.0  1.0000
  Cu  Cu767     1.0  0.6000000000000001  0.5600000000000002  0.0  1.0000
  Cu  Cu768     1.0  0.6000000000000001  0.5800000000000001  0.0  1.0000
  Au  Au763     1.0  0.6000000000000001  0.6000000000000001  0.0  1.0000
  Au  Au764     1.0  0.6000000000000001  0.62  0.0  1.0000
  Au  Au765     1.0  0.6000000000000001  0.64  0.0  1.0000
  Au  Au766     1.0  0.6000000000000001  0.66  0.0  1.0000
  Cu  Cu769     1.0  0.6000000000000001  0.6800000000000002  0.0  1.0000
  Au  Au767     1.0  0.6000000000000001  0.7000000000000001  0.0  1.0000
  Cu  Cu770     1.0  0.6000000000000001  0.7200000000000001  0.0  1.0000
  Au  Au768     1.0  0.6000000000000001  0.7400000000000001  0.0  1.0000
  Au  Au769     1.0  0.6000000000000001  0.76  0.0  1.0000
  Cu  Cu771     1.0  0.6000000000000001  0.78  0.0  1.0000
  Au  Au770     1.0  0.6000000000000001  0.8  0.0  1.0000
  Au  Au771     1.0  0.6000000000000001  0.82  0.0  1.0000
  Cu  Cu772     1.0  0.6000000000000001  0.8400000000000001  0.0  1.0000
  Cu  Cu773     1.0  0.6000000000000001  0.8600000000000001  0.0  1.0000
  Au  Au772     1.0  0.6000000000000001  0.88  0.0  1.0000
  Cu  Cu774     1.0  0.6000000000000001  0.9  0.0  1.0000
  Cu  Cu775     1.0  0.6000000000000001  0.92  0.0  1.0000
  Au  Au773     1.0  0.6000000000000001  0.9400000000000001  0.0  1.0000
  Cu  Cu776     1.0  0.6000000000000001  0.9600000000000001  0.0  1.0000
  Au  Au774     1.0  0.6000000000000001  0.9800000000000001  0.0  1.0000
  Cu  Cu777     1.0  0.62  0.0  0.0  1.0000
  Au  Au775     1.0  0.62  0.02  0.0  1.0000
  Cu  Cu778     1.0  0.62  0.04  0.0  1.0000
  Au  Au776     1.0  0.62  0.060000000000000005  0.0  1.0000
  Cu  Cu779     1.0  0.62  0.08  0.0  1.0000
  Au  Au777     1.0  0.62  0.1  0.0  1.0000
  Cu  Cu780     1.0  0.62  0.12000000000000001  0.0  1.0000
  Au  Au778     1.0  0.62  0.14000000000000004  0.0  1.0000
  Cu  Cu781     1.0  0.62  0.16  0.0  1.0000
  Au  Au779     1.0  0.62  0.18000000000000002  0.0  1.0000
  Au  Au780     1.0  0.62  0.2  0.0  1.0000
  Cu  Cu782     1.0  0.62  0.22  0.0  1.0000
  Cu  Cu783     1.0  0.62  0.24000000000000002  0.0  1.0000
  Au  Au781     1.0  0.62  0.26  0.0  1.0000
  Cu  Cu784     1.0  0.62  0.2800000000000001  0.0  1.0000
  Cu  Cu785     1.0  0.62  0.30000000000000004  0.0  1.0000
  Au  Au782     1.0  0.62  0.32  0.0  1.0000
  Cu  Cu786     1.0  0.62  0.3400000000000001  0.0  1.0000
  Au  Au783     1.0  0.62  0.36000000000000004  0.0  1.0000
  Cu  Cu787     1.0  0.62  0.38  0.0  1.0000
  Au  Au784     1.0  0.62  0.4  0.0  1.0000
  Cu  Cu788     1.0  0.62  0.42000000000000004  0.0  1.0000
  Au  Au785     1.0  0.62  0.44  0.0  1.0000
  Cu  Cu789     1.0  0.62  0.46  0.0  1.0000
  Au  Au786     1.0  0.62  0.48000000000000004  0.0  1.0000
  Cu  Cu790     1.0  0.62  0.5  0.0  1.0000
  Au  Au787     1.0  0.62  0.52  0.0  1.0000
  Au  Au788     1.0  0.62  0.54  0.0  1.0000
  Cu  Cu791     1.0  0.62  0.5600000000000002  0.0  1.0000
  Au  Au789     1.0  0.62  0.5800000000000001  0.0  1.0000
  Cu  Cu792     1.0  0.62  0.6000000000000001  0.0  1.0000
  Au  Au790     1.0  0.62  0.62  0.0  1.0000
  Cu  Cu793     1.0  0.62  0.64  0.0  1.0000
  Cu  Cu794     1.0  0.62  0.66  0.0  1.0000
  Au  Au791     1.0  0.62  0.6800000000000002  0.0  1.0000
  Cu  Cu795     1.0  0.62  0.7000000000000001  0.0  1.0000
  Au  Au792     1.0  0.62  0.7200000000000001  0.0  1.0000
  Au  Au793     1.0  0.62  0.7400000000000001  0.0  1.0000
  Cu  Cu796     1.0  0.62  0.76  0.0  1.0000
  Au  Au794     1.0  0.62  0.78  0.0  1.0000
  Au  Au795     1.0  0.62  0.8  0.0  1.0000
  Cu  Cu797     1.0  0.62  0.82  0.0  1.0000
  Au  Au796     1.0  0.62  0.8400000000000001  0.0  1.0000
  Cu  Cu798     1.0  0.62  0.8600000000000001  0.0  1.0000
  Au  Au797     1.0  0.62  0.88  0.0  1.0000
  Cu  Cu799     1.0  0.62  0.9  0.0  1.0000
  Au  Au798     1.0  0.62  0.92  0.0  1.0000
  Au  Au799     1.0  0.62  0.9400000000000001  0.0  1.0000
  Cu  Cu800     1.0  0.62  0.9600000000000001  0.0  1.0000
  Cu  Cu801     1.0  0.62  0.9800000000000001  0.0  1.0000
  Au  Au800     1.0  0.64  0.0  0.0  1.0000
  Cu  Cu802     1.0  0.64  0.02  0.0  1.0000
  Au  Au801     1.0  0.64  0.04  0.0  1.0000
  Au  Au802     1.0  0.64  0.060000000000000005  0.0  1.0000
  Cu  Cu803     1.0  0.64  0.08  0.0  1.0000
  Au  Au803     1.0  0.64  0.1  0.0  1.0000
  Au  Au804     1.0  0.64  0.12000000000000001  0.0  1.0000
  Cu  Cu804     1.0  0.64  0.14000000000000004  0.0  1.0000
  Au  Au805     1.0  0.64  0.16  0.0  1.0000
  Cu  Cu805     1.0  0.64  0.18000000000000002  0.0  1.0000
  Au  Au806     1.0  0.64  0.2  0.0  1.0000
  Cu  Cu806     1.0  0.64  0.22  0.0  1.0000
  Au  Au807     1.0  0.64  0.24000000000000002  0.0  1.0000
  Cu  Cu807     1.0  0.64  0.26  0.0  1.0000
  Au  Au808     1.0  0.64  0.2800000000000001  0.0  1.0000
  Cu  Cu808     1.0  0.64  0.30000000000000004  0.0  1.0000
  Cu  Cu809     1.0  0.64  0.32  0.0  1.0000
  Au  Au809     1.0  0.64  0.3400000000000001  0.0  1.0000
  Cu  Cu810     1.0  0.64  0.36000000000000004  0.0  1.0000
  Au  Au810     1.0  0.64  0.38  0.0  1.0000
  Cu  Cu811     1.0  0.64  0.4  0.0  1.0000
  Cu  Cu812     1.0  0.64  0.42000000000000004  0.0  1.0000
  Au  Au811     1.0  0.64  0.44  0.0  1.0000
  Au  Au812     1.0  0.64  0.46  0.0  1.0000
  Cu  Cu813     1.0  0.64  0.48000000000000004  0.0  1.0000
  Au  Au813     1.0  0.64  0.5  0.0  1.0000
  Cu  Cu814     1.0  0.64  0.52  0.0  1.0000
  Cu  Cu815     1.0  0.64  0.54  0.0  1.0000
  Cu  Cu816     1.0  0.64  0.5600000000000002  0.0  1.0000
  Cu  Cu817     1.0  0.64  0.5800000000000001  0.0  1.0000
  Cu  Cu818     1.0  0.64  0.6000000000000001  0.0  1.0000
  Cu  Cu819     1.0  0.64  0.62  0.0  1.0000
  Au  Au814     1.0  0.64  0.64  0.0  1.0000
  Cu  Cu820     1.0  0.64  0.66  0.0  1.0000
  Cu  Cu821     1.0  0.64  0.6800000000000002  0.0  1.0000
  Au  Au815     1.0  0.64  0.7000000000000001  0.0  1.0000
  Cu  Cu822     1.0  0.64  0.7200000000000001  0.0  1.0000
  Cu  Cu823     1.0  0.64  0.7400000000000001  0.0  1.0000
  Au  Au816     1.0  0.64  0.76  0.0  1.0000
  Cu  Cu824     1.0  0.64  0.78  0.0  1.0000
  Cu  Cu825     1.0  0.64  0.8  0.0  1.0000
  Au  Au817     1.0  0.64  0.82  0.0  1.0000
  Cu  Cu826     1.0  0.64  0.8400000000000001  0.0  1.0000
  Cu  Cu827     1.0  0.64  0.8600000000000001  0.0  1.0000
  Au  Au818     1.0  0.64  0.88  0.0  1.0000
  Au  Au819     1.0  0.64  0.9  0.0  1.0000
  Cu  Cu828     1.0  0.64  0.92  0.0  1.0000
  Au  Au820     1.0  0.64  0.9400000000000001  0.0  1.0000
  Cu  Cu829     1.0  0.64  0.9600000000000001  0.0  1.0000
  Cu  Cu830     1.0  0.64  0.9800000000000001  0.0  1.0000
  Cu  Cu831     1.0  0.66  0.0  0.0  1.0000
  Au  Au821     1.0  0.66  0.02  0.0  1.0000
  Cu  Cu832     1.0  0.66  0.04  0.0  1.0000
  Cu  Cu833     1.0  0.66  0.060000000000000005  0.0  1.0000
  Au  Au822     1.0  0.66  0.08  0.0  1.0000
  Cu  Cu834     1.0  0.66  0.1  0.0  1.0000
  Cu  Cu835     1.0  0.66  0.12000000000000001  0.0  1.0000
  Au  Au823     1.0  0.66  0.14000000000000004  0.0  1.0000
  Cu  Cu836     1.0  0.66  0.16  0.0  1.0000
  Au  Au824     1.0  0.66  0.18000000000000002  0.0  1.0000
  Cu  Cu837     1.0  0.66  0.2  0.0  1.0000
  Au  Au825     1.0  0.66  0.22  0.0  1.0000
  Cu  Cu838     1.0  0.66  0.24000000000000002  0.0  1.0000
  Au  Au826     1.0  0.66  0.26  0.0  1.0000
  Cu  Cu839     1.0  0.66  0.2800000000000001  0.0  1.0000
  Cu  Cu840     1.0  0.66  0.30000000000000004  0.0  1.0000
  Au  Au827     1.0  0.66  0.32  0.0  1.0000
  Cu  Cu841     1.0  0.66  0.3400000000000001  0.0  1.0000
  Cu  Cu842     1.0  0.66  0.36000000000000004  0.0  1.0000
  Au  Au828     1.0  0.66  0.38  0.0  1.0000
  Cu  Cu843     1.0  0.66  0.4  0.0  1.0000
  Au  Au829     1.0  0.66  0.42000000000000004  0.0  1.0000
  Cu  Cu844     1.0  0.66  0.44  0.0  1.0000
  Au  Au830     1.0  0.66  0.46  0.0  1.0000
  Au  Au831     1.0  0.66  0.48000000000000004  0.0  1.0000
  Cu  Cu845     1.0  0.66  0.5  0.0  1.0000
  Au  Au832     1.0  0.66  0.52  0.0  1.0000
  Cu  Cu846     1.0  0.66  0.54  0.0  1.0000
  Au  Au833     1.0  0.66  0.5600000000000002  0.0  1.0000
  Cu  Cu847     1.0  0.66  0.5800000000000001  0.0  1.0000
  Au  Au834     1.0  0.66  0.6000000000000001  0.0  1.0000
  Au  Au835     1.0  0.66  0.62  0.0  1.0000
  Cu  Cu848     1.0  0.66  0.64  0.0  1.0000
  Au  Au836     1.0  0.66  0.66  0.0  1.0000
  Au  Au837     1.0  0.66  0.6800000000000002  0.0  1.0000
  Cu  Cu849     1.0  0.66  0.7000000000000001  0.0  1.0000
  Au  Au838     1.0  0.66  0.7200000000000001  0.0  1.0000
  Au  Au839     1.0  0.66  0.7400000000000001  0.0  1.0000
  Cu  Cu850     1.0  0.66  0.76  0.0  1.0000
  Cu  Cu851     1.0  0.66  0.78  0.0  1.0000
  Au  Au840     1.0  0.66  0.8  0.0  1.0000
  Cu  Cu852     1.0  0.66  0.82  0.0  1.0000
  Au  Au841     1.0  0.66  0.8400000000000001  0.0  1.0000
  Cu  Cu853     1.0  0.66  0.8600000000000001  0.0  1.0000
  Au  Au842     1.0  0.66  0.88  0.0  1.0000
  Cu  Cu854     1.0  0.66  0.9  0.0  1.0000
  Au  Au843     1.0  0.66  0.92  0.0  1.0000
  Cu  Cu855     1.0  0.66  0.9400000000000001  0.0  1.0000
  Au  Au844     1.0  0.66  0.9600000000000001  0.0  1.0000
  Cu  Cu856     1.0  0.66  0.9800000000000001  0.0  1.0000
  Au  Au845     1.0  0.6800000000000002  0.0  0.0  1.0000
  Au  Au846     1.0  0.6800000000000002  0.02  0.0  1.0000
  Cu  Cu857     1.0  0.6800000000000002  0.04  0.0  1.0000
  Au  Au847     1.0  0.6800000000000002  0.060000000000000005  0.0  1.0000
  Cu  Cu858     1.0  0.6800000000000002  0.08  0.0  1.0000
  Au  Au848     1.0  0.6800000000000002  0.1  0.0  1.0000
  Cu  Cu859     1.0  0.6800000000000002  0.12000000000000001  0.0  1.0000
  Cu  Cu860     1.0  0.6800000000000002  0.14000000000000004  0.0  1.0000
  Au  Au849     1.0  0.6800000000000002  0.16  0.0  1.0000
  Cu  Cu861     1.0  0.6800000000000002  0.18000000000000002  0.0  1.0000
  Au  Au850     1.0  0.6800000000000002  0.2  0.0  1.0000
  Cu  Cu862     1.0  0.6800000000000002  0.22  0.0  1.0000
  Au  Au851     1.0  0.6800000000000002  0.24000000000000002  0.0  1.0000
  Cu  Cu863     1.0  0.6800000000000002  0.26  0.0  1.0000
  Au  Au852     1.0  0.6800000000000002  0.2800000000000001  0.0  1.0000
  Au  Au853     1.0  0.6800000000000002  0.30000000000000004  0.0  1.0000
  Cu  Cu864     1.0  0.6800000000000002  0.32  0.0  1.0000
  Au  Au854     1.0  0.6800000000000002  0.3400000000000001  0.0  1.0000
  Au  Au855     1.0  0.6800000000000002  0.36000000000000004  0.0  1.0000
  Cu  Cu865     1.0  0.6800000000000002  0.38  0.0  1.0000
  Au  Au856     1.0  0.6800000000000002  0.4  0.0  1.0000
  Cu  Cu866     1.0  0.6800000000000002  0.42000000000000004  0.0  1.0000
  Au  Au857     1.0  0.6800000000000002  0.44  0.0  1.0000
  Cu  Cu867     1.0  0.6800000000000002  0.46  0.0  1.0000
  Cu  Cu868     1.0  0.6800000000000002  0.48000000000000004  0.0  1.0000
  Au  Au858     1.0  0.6800000000000002  0.5  0.0  1.0000
  Cu  Cu869     1.0  0.6800000000000002  0.52  0.0  1.0000
  Au  Au859     1.0  0.6800000000000002  0.54  0.0  1.0000
  Cu  Cu870     1.0  0.6800000000000002  0.5600000000000002  0.0  1.0000
  Au  Au860     1.0  0.6800000000000002  0.5800000000000001  0.0  1.0000
  Cu  Cu871     1.0  0.6800000000000002  0.6000000000000001  0.0  1.0000
  Cu  Cu872     1.0  0.6800000000000002  0.62  0.0  1.0000
  Au  Au861     1.0  0.6800000000000002  0.64  0.0  1.0000
  Au  Au862     1.0  0.6800000000000002  0.66  0.0  1.0000
  Cu  Cu873     1.0  0.6800000000000002  0.6800000000000002  0.0  1.0000
  Au  Au863     1.0  0.6800000000000002  0.7000000000000001  0.0  1.0000
  Cu  Cu874     1.0  0.6800000000000002  0.7200000000000001  0.0  1.0000
  Cu  Cu875     1.0  0.6800000000000002  0.7400000000000001  0.0  1.0000
  Au  Au864     1.0  0.6800000000000002  0.76  0.0  1.0000
  Au  Au865     1.0  0.6800000000000002  0.78  0.0  1.0000
  Cu  Cu876     1.0  0.6800000000000002  0.8  0.0  1.0000
  Au  Au866     1.0  0.6800000000000002  0.82  0.0  1.0000
  Cu  Cu877     1.0  0.6800000000000002  0.8400000000000001  0.0  1.0000
  Au  Au867     1.0  0.6800000000000002  0.8600000000000001  0.0  1.0000
  Cu  Cu878     1.0  0.6800000000000002  0.88  0.0  1.0000
  Au  Au868     1.0  0.6800000000000002  0.9  0.0  1.0000
  Cu  Cu879     1.0  0.6800000000000002  0.92  0.0  1.0000
  Au  Au869     1.0  0.6800000000000002  0.9400000000000001  0.0  1.0000
  Cu  Cu880     1.0  0.6800000000000002  0.9600000000000001  0.0  1.0000
  Au  Au870     1.0  0.6800000000000002  0.9800000000000001  0.0  1.0000
  Cu  Cu881     1.0  0.7000000000000001  0.0  0.0  1.0000
  Cu  Cu882     1.0  0.7000000000000001  0.02  0.0  1.0000
  Au  Au871     1.0  0.7000000000000001  0.04  0.0  1.0000
  Cu  Cu883     1.0  0.7000000000000001  0.060000000000000005  0.0  1.0000
  Au  Au872     1.0  0.7000000000000001  0.08  0.0  1.0000
  Cu  Cu884     1.0  0.7000000000000001  0.1  0.0  1.0000
  Au  Au873     1.0  0.7000000000000001  0.12000000000000001  0.0  1.0000
  Au  Au874     1.0  0.7000000000000001  0.14000000000000004  0.0  1.0000
  Cu  Cu885     1.0  0.7000000000000001  0.16  0.0  1.0000
  Au  Au875     1.0  0.7000000000000001  0.18000000000000002  0.0  1.0000
  Cu  Cu886     1.0  0.7000000000000001  0.2  0.0  1.0000
  Au  Au876     1.0  0.7000000000000001  0.22  0.0  1.0000
  Cu  Cu887     1.0  0.7000000000000001  0.24000000000000002  0.0  1.0000
  Au  Au877     1.0  0.7000000000000001  0.26  0.0  1.0000
  Au  Au878     1.0  0.7000000000000001  0.2800000000000001  0.0  1.0000
  Cu  Cu888     1.0  0.7000000000000001  0.30000000000000004  0.0  1.0000
  Au  Au879     1.0  0.7000000000000001  0.32  0.0  1.0000
  Cu  Cu889     1.0  0.7000000000000001  0.3400000000000001  0.0  1.0000
  Au  Au880     1.0  0.7000000000000001  0.36000000000000004  0.0  1.0000
  Cu  Cu890     1.0  0.7000000000000001  0.38  0.0  1.0000
  Au  Au881     1.0  0.7000000000000001  0.4  0.0  1.0000
  Au  Au882     1.0  0.7000000000000001  0.42000000000000004  0.0  1.0000
  Cu  Cu891     1.0  0.7000000000000001  0.44  0.0  1.0000
  Cu  Cu892     1.0  0.7000000000000001  0.46  0.0  1.0000
  Cu  Cu893     1.0  0.7000000000000001  0.48000000000000004  0.0  1.0000
  Au  Au883     1.0  0.7000000000000001  0.5  0.0  1.0000
  Au  Au884     1.0  0.7000000000000001  0.52  0.0  1.0000
  Cu  Cu894     1.0  0.7000000000000001  0.54  0.0  1.0000
  Au  Au885     1.0  0.7000000000000001  0.5600000000000002  0.0  1.0000
  Cu  Cu895     1.0  0.7000000000000001  0.5800000000000001  0.0  1.0000
  Au  Au886     1.0  0.7000000000000001  0.6000000000000001  0.0  1.0000
  Au  Au887     1.0  0.7000000000000001  0.62  0.0  1.0000
  Au  Au888     1.0  0.7000000000000001  0.64  0.0  1.0000
  Cu  Cu896     1.0  0.7000000000000001  0.66  0.0  1.0000
  Au  Au889     1.0  0.7000000000000001  0.6800000000000002  0.0  1.0000
  Cu  Cu897     1.0  0.7000000000000001  0.7000000000000001  0.0  1.0000
  Au  Au890     1.0  0.7000000000000001  0.7200000000000001  0.0  1.0000
  Cu  Cu898     1.0  0.7000000000000001  0.7400000000000001  0.0  1.0000
  Cu  Cu899     1.0  0.7000000000000001  0.76  0.0  1.0000
  Cu  Cu900     1.0  0.7000000000000001  0.78  0.0  1.0000
  Au  Au891     1.0  0.7000000000000001  0.8  0.0  1.0000
  Cu  Cu901     1.0  0.7000000000000001  0.82  0.0  1.0000
  Au  Au892     1.0  0.7000000000000001  0.8400000000000001  0.0  1.0000
  Cu  Cu902     1.0  0.7000000000000001  0.8600000000000001  0.0  1.0000
  Au  Au893     1.0  0.7000000000000001  0.88  0.0  1.0000
  Cu  Cu903     1.0  0.7000000000000001  0.9  0.0  1.0000
  Au  Au894     1.0  0.7000000000000001  0.92  0.0  1.0000
  Cu  Cu904     1.0  0.7000000000000001  0.9400000000000001  0.0  1.0000
  Cu  Cu905     1.0  0.7000000000000001  0.9600000000000001  0.0  1.0000
  Au  Au895     1.0  0.7000000000000001  0.9800000000000001  0.0  1.0000
  Cu  Cu906     1.0  0.7200000000000001  0.0  0.0  1.0000
  Cu  Cu907     1.0  0.7200000000000001  0.02  0.0  1.0000
  Cu  Cu908     1.0  0.7200000000000001  0.04  0.0  1.0000
  Cu  Cu909     1.0  0.7200000000000001  0.060000000000000005  0.0  1.0000
  Au  Au896     1.0  0.7200000000000001  0.08  0.0  1.0000
  Cu  Cu910     1.0  0.7200000000000001  0.1  0.0  1.0000
  Au  Au897     1.0  0.7200000000000001  0.12000000000000001  0.0  1.0000
  Cu  Cu911     1.0  0.7200000000000001  0.14000000000000004  0.0  1.0000
  Au  Au898     1.0  0.7200000000000001  0.16  0.0  1.0000
  Cu  Cu912     1.0  0.7200000000000001  0.18000000000000002  0.0  1.0000
  Au  Au899     1.0  0.7200000000000001  0.2  0.0  1.0000
  Cu  Cu913     1.0  0.7200000000000001  0.22  0.0  1.0000
  Au  Au900     1.0  0.7200000000000001  0.24000000000000002  0.0  1.0000
  Au  Au901     1.0  0.7200000000000001  0.26  0.0  1.0000
  Cu  Cu914     1.0  0.7200000000000001  0.2800000000000001  0.0  1.0000
  Au  Au902     1.0  0.7200000000000001  0.30000000000000004  0.0  1.0000
  Cu  Cu915     1.0  0.7200000000000001  0.32  0.0  1.0000
  Au  Au903     1.0  0.7200000000000001  0.3400000000000001  0.0  1.0000
  Au  Au904     1.0  0.7200000000000001  0.36000000000000004  0.0  1.0000
  Cu  Cu916     1.0  0.7200000000000001  0.38  0.0  1.0000
  Cu  Cu917     1.0  0.7200000000000001  0.4  0.0  1.0000
  Au  Au905     1.0  0.7200000000000001  0.42000000000000004  0.0  1.0000
  Cu  Cu918     1.0  0.7200000000000001  0.44  0.0  1.0000
  Au  Au906     1.0  0.7200000000000001  0.46  0.0  1.0000
  Au  Au907     1.0  0.7200000000000001  0.48000000000000004  0.0  1.0000
  Cu  Cu919     1.0  0.7200000000000001  0.5  0.0  1.0000
  Au  Au908     1.0  0.7200000000000001  0.52  0.0  1.0000
  Au  Au909     1.0  0.7200000000000001  0.54  0.0  1.0000
  Cu  Cu920     1.0  0.7200000000000001  0.5600000000000002  0.0  1.0000
  Au  Au910     1.0  0.7200000000000001  0.5800000000000001  0.0  1.0000
  Au  Au911     1.0  0.7200000000000001  0.6000000000000001  0.0  1.0000
  Cu  Cu921     1.0  0.7200000000000001  0.62  0.0  1.0000
  Cu  Cu922     1.0  0.7200000000000001  0.64  0.0  1.0000
  Cu  Cu923     1.0  0.7200000000000001  0.66  0.0  1.0000
  Cu  Cu924     1.0  0.7200000000000001  0.6800000000000002  0.0  1.0000
  Cu  Cu925     1.0  0.7200000000000001  0.7000000000000001  0.0  1.0000
  Au  Au912     1.0  0.7200000000000001  0.7200000000000001  0.0  1.0000
  Cu  Cu926     1.0  0.7200000000000001  0.7400000000000001  0.0  1.0000
  Cu  Cu927     1.0  0.7200000000000001  0.76  0.0  1.0000
  Au  Au913     1.0  0.7200000000000001  0.78  0.0  1.0000
  Cu  Cu928     1.0  0.7200000000000001  0.8  0.0  1.0000
  Au  Au914     1.0  0.7200000000000001  0.82  0.0  1.0000
  Cu  Cu929     1.0  0.7200000000000001  0.8400000000000001  0.0  1.0000
  Au  Au915     1.0  0.7200000000000001  0.8600000000000001  0.0  1.0000
  Cu  Cu930     1.0  0.7200000000000001  0.88  0.0  1.0000
  Au  Au916     1.0  0.7200000000000001  0.9  0.0  1.0000
  Cu  Cu931     1.0  0.7200000000000001  0.92  0.0  1.0000
  Au  Au917     1.0  0.7200000000000001  0.9400000000000001  0.0  1.0000
  Cu  Cu932     1.0  0.7200000000000001  0.9600000000000001  0.0  1.0000
  Au  Au918     1.0  0.7200000000000001  0.9800000000000001  0.0  1.0000
  Au  Au919     1.0  0.7400000000000001  0.0  0.0  1.0000
  Cu  Cu933     1.0  0.7400000000000001  0.02  0.0  1.0000
  Au  Au920     1.0  0.7400000000000001  0.04  0.0  1.0000
  Au  Au921     1.0  0.7400000000000001  0.060000000000000005  0.0  1.0000
  Cu  Cu934     1.0  0.7400000000000001  0.08  0.0  1.0000
  Au  Au922     1.0  0.7400000000000001  0.1  0.0  1.0000
  Cu  Cu935     1.0  0.7400000000000001  0.12000000000000001  0.0  1.0000
  Au  Au923     1.0  0.7400000000000001  0.14000000000000004  0.0  1.0000
  Cu  Cu936     1.0  0.7400000000000001  0.16  0.0  1.0000
  Au  Au924     1.0  0.7400000000000001  0.18000000000000002  0.0  1.0000
  Cu  Cu937     1.0  0.7400000000000001  0.2  0.0  1.0000
  Au  Au925     1.0  0.7400000000000001  0.22  0.0  1.0000
  Cu  Cu938     1.0  0.7400000000000001  0.24000000000000002  0.0  1.0000
  Au  Au926     1.0  0.7400000000000001  0.26  0.0  1.0000
  Cu  Cu939     1.0  0.7400000000000001  0.2800000000000001  0.0  1.0000
  Au  Au927     1.0  0.7400000000000001  0.30000000000000004  0.0  1.0000
  Cu  Cu940     1.0  0.7400000000000001  0.32  0.0  1.0000
  Au  Au928     1.0  0.7400000000000001  0.3400000000000001  0.0  1.0000
  Cu  Cu941     1.0  0.7400000000000001  0.36000000000000004  0.0  1.0000
  Au  Au929     1.0  0.7400000000000001  0.38  0.0  1.0000
  Cu  Cu942     1.0  0.7400000000000001  0.4  0.0  1.0000
  Au  Au930     1.0  0.7400000000000001  0.42000000000000004  0.0  1.0000
  Au  Au931     1.0  0.7400000000000001  0.44  0.0  1.0000
  Au  Au932     1.0  0.7400000000000001  0.46  0.0  1.0000
  Cu  Cu943     1.0  0.7400000000000001  0.48000000000000004  0.0  1.0000
  Au  Au933     1.0  0.7400000000000001  0.5  0.0  1.0000
  Cu  Cu944     1.0  0.7400000000000001  0.52  0.0  1.0000
  Au  Au934     1.0  0.7400000000000001  0.54  0.0  1.0000
  Cu  Cu945     1.0  0.7400000000000001  0.5600000000000002  0.0  1.0000
  Au  Au935     1.0  0.7400000000000001  0.5800000000000001  0.0  1.0000
  Cu  Cu946     1.0  0.7400000000000001  0.6000000000000001  0.0  1.0000
  Cu  Cu947     1.0  0.7400000000000001  0.62  0.0  1.0000
  Au  Au936     1.0  0.7400000000000001  0.64  0.0  1.0000
  Au  Au937     1.0  0.7400000000000001  0.66  0.0  1.0000
  Cu  Cu948     1.0  0.7400000000000001  0.6800000000000002  0.0  1.0000
  Au  Au938     1.0  0.7400000000000001  0.7000000000000001  0.0  1.0000
  Cu  Cu949     1.0  0.7400000000000001  0.7200000000000001  0.0  1.0000
  Au  Au939     1.0  0.7400000000000001  0.7400000000000001  0.0  1.0000
  Au  Au940     1.0  0.7400000000000001  0.76  0.0  1.0000
  Cu  Cu950     1.0  0.7400000000000001  0.78  0.0  1.0000
  Au  Au941     1.0  0.7400000000000001  0.8  0.0  1.0000
  Cu  Cu951     1.0  0.7400000000000001  0.82  0.0  1.0000
  Cu  Cu952     1.0  0.7400000000000001  0.8400000000000001  0.0  1.0000
  Cu  Cu953     1.0  0.7400000000000001  0.8600000000000001  0.0  1.0000
  Cu  Cu954     1.0  0.7400000000000001  0.88  0.0  1.0000
  Au  Au942     1.0  0.7400000000000001  0.9  0.0  1.0000
  Cu  Cu955     1.0  0.7400000000000001  0.92  0.0  1.0000
  Cu  Cu956     1.0  0.7400000000000001  0.9400000000000001  0.0  1.0000
  Au  Au943     1.0  0.7400000000000001  0.9600000000000001  0.0  1.0000
  Cu  Cu957     1.0  0.7400000000000001  0.9800000000000001  0.0  1.0000
  Cu  Cu958     1.0  0.76  0.0  0.0  1.0000
  Au  Au944     1.0  0.76  0.02  0.0  1.0000
  Cu  Cu959     1.0  0.76  0.04  0.0  1.0000
  Cu  Cu960     1.0  0.76  0.060000000000000005  0.0  1.0000
  Au  Au945     1.0  0.76  0.08  0.0  1.0000
  Cu  Cu961     1.0  0.76  0.1  0.0  1.0000
  Cu  Cu962     1.0  0.76  0.12000000000000001  0.0  1.0000
  Cu  Cu963     1.0  0.76  0.14000000000000004  0.0  1.0000
  Au  Au946     1.0  0.76  0.16  0.0  1.0000
  Cu  Cu964     1.0  0.76  0.18000000000000002  0.0  1.0000
  Au  Au947     1.0  0.76  0.2  0.0  1.0000
  Au  Au948     1.0  0.76  0.22  0.0  1.0000
  Cu  Cu965     1.0  0.76  0.24000000000000002  0.0  1.0000
  Cu  Cu966     1.0  0.76  0.26  0.0  1.0000
  Au  Au949     1.0  0.76  0.2800000000000001  0.0  1.0000
  Cu  Cu967     1.0  0.76  0.30000000000000004  0.0  1.0000
  Cu  Cu968     1.0  0.76  0.32  0.0  1.0000
  Au  Au950     1.0  0.76  0.3400000000000001  0.0  1.0000
  Cu  Cu969     1.0  0.76  0.36000000000000004  0.0  1.0000
  Au  Au951     1.0  0.76  0.38  0.0  1.0000
  Cu  Cu970     1.0  0.76  0.4  0.0  1.0000
  Au  Au952     1.0  0.76  0.42000000000000004  0.0  1.0000
  Cu  Cu971     1.0  0.76  0.44  0.0  1.0000
  Au  Au953     1.0  0.76  0.46  0.0  1.0000
  Au  Au954     1.0  0.76  0.48000000000000004  0.0  1.0000
  Cu  Cu972     1.0  0.76  0.5  0.0  1.0000
  Au  Au955     1.0  0.76  0.52  0.0  1.0000
  Au  Au956     1.0  0.76  0.54  0.0  1.0000
  Cu  Cu973     1.0  0.76  0.5600000000000002  0.0  1.0000
  Cu  Cu974     1.0  0.76  0.5800000000000001  0.0  1.0000
  Au  Au957     1.0  0.76  0.6000000000000001  0.0  1.0000
  Au  Au958     1.0  0.76  0.62  0.0  1.0000
  Cu  Cu975     1.0  0.76  0.64  0.0  1.0000
  Au  Au959     1.0  0.76  0.66  0.0  1.0000
  Au  Au960     1.0  0.76  0.6800000000000002  0.0  1.0000
  Cu  Cu976     1.0  0.76  0.7000000000000001  0.0  1.0000
  Au  Au961     1.0  0.76  0.7200000000000001  0.0  1.0000
  Cu  Cu977     1.0  0.76  0.7400000000000001  0.0  1.0000
  Au  Au962     1.0  0.76  0.76  0.0  1.0000
  Cu  Cu978     1.0  0.76  0.78  0.0  1.0000
  Au  Au963     1.0  0.76  0.8  0.0  1.0000
  Cu  Cu979     1.0  0.76  0.82  0.0  1.0000
  Au  Au964     1.0  0.76  0.8400000000000001  0.0  1.0000
  Au  Au965     1.0  0.76  0.8600000000000001  0.0  1.0000
  Au  Au966     1.0  0.76  0.88  0.0  1.0000
  Cu  Cu980     1.0  0.76  0.9  0.0  1.0000
  Au  Au967     1.0  0.76  0.92  0.0  1.0000
  Cu  Cu981     1.0  0.76  0.9400000000000001  0.0  1.0000
  Cu  Cu982     1.0  0.76  0.9600000000000001  0.0  1.0000
  Au  Au968     1.0  0.76  0.9800000000000001  0.0  1.0000
  Cu  Cu983     1.0  0.78  0.0  0.0  1.0000
  Cu  Cu984     1.0  0.78  0.02  0.0  1.0000
  Au  Au969     1.0  0.78  0.04  0.0  1.0000
  Au  Au970     1.0  0.78  0.060000000000000005  0.0  1.0000
  Au  Au971     1.0  0.78  0.08  0.0  1.0000
  Cu  Cu985     1.0  0.78  0.1  0.0  1.0000
  Au  Au972     1.0  0.78  0.12000000000000001  0.0  1.0000
  Au  Au973     1.0  0.78  0.14000000000000004  0.0  1.0000
  Cu  Cu986     1.0  0.78  0.16  0.0  1.0000
  Au  Au974     1.0  0.78  0.18000000000000002  0.0  1.0000
  Au  Au975     1.0  0.78  0.2  0.0  1.0000
  Cu  Cu987     1.0  0.78  0.22  0.0  1.0000
  Au  Au976     1.0  0.78  0.24000000000000002  0.0  1.0000
  Au  Au977     1.0  0.78  0.26  0.0  1.0000
  Cu  Cu988     1.0  0.78  0.2800000000000001  0.0  1.0000
  Au  Au978     1.0  0.78  0.30000000000000004  0.0  1.0000
  Cu  Cu989     1.0  0.78  0.32  0.0  1.0000
  Cu  Cu990     1.0  0.78  0.3400000000000001  0.0  1.0000
  Au  Au979     1.0  0.78  0.36000000000000004  0.0  1.0000
  Cu  Cu991     1.0  0.78  0.38  0.0  1.0000
  Au  Au980     1.0  0.78  0.4  0.0  1.0000
  Cu  Cu992     1.0  0.78  0.42000000000000004  0.0  1.0000
  Au  Au981     1.0  0.78  0.44  0.0  1.0000
  Au  Au982     1.0  0.78  0.46  0.0  1.0000
  Cu  Cu993     1.0  0.78  0.48000000000000004  0.0  1.0000
  Cu  Cu994     1.0  0.78  0.5  0.0  1.0000
  Au  Au983     1.0  0.78  0.52  0.0  1.0000
  Cu  Cu995     1.0  0.78  0.54  0.0  1.0000
  Au  Au984     1.0  0.78  0.5600000000000002  0.0  1.0000
  Au  Au985     1.0  0.78  0.5800000000000001  0.0  1.0000
  Au  Au986     1.0  0.78  0.6000000000000001  0.0  1.0000
  Cu  Cu996     1.0  0.78  0.62  0.0  1.0000
  Au  Au987     1.0  0.78  0.64  0.0  1.0000
  Cu  Cu997     1.0  0.78  0.66  0.0  1.0000
  Au  Au988     1.0  0.78  0.6800000000000002  0.0  1.0000
  Cu  Cu998     1.0  0.78  0.7000000000000001  0.0  1.0000
  Au  Au989     1.0  0.78  0.7200000000000001  0.0  1.0000
  Au  Au990     1.0  0.78  0.7400000000000001  0.0  1.0000
  Cu  Cu999     1.0  0.78  0.76  0.0  1.0000
  Au  Au991     1.0  0.78  0.78  0.0  1.0000
  Cu  Cu1000    1.0  0.78  0.8  0.0  1.0000
  Au  Au992     1.0  0.78  0.82  0.0  1.0000
  Cu  Cu1001    1.0  0.78  0.8400000000000001  0.0  1.0000
  Cu  Cu1002    1.0  0.78  0.8600000000000001  0.0  1.0000
  Cu  Cu1003    1.0  0.78  0.88  0.0  1.0000
  Au  Au993     1.0  0.78  0.9  0.0  1.0000
  Cu  Cu1004    1.0  0.78  0.92  0.0  1.0000
  Au  Au994     1.0  0.78  0.9400000000000001  0.0  1.0000
  Cu  Cu1005    1.0  0.78  0.9600000000000001  0.0  1.0000
  Au  Au995     1.0  0.78  0.9800000000000001  0.0  1.0000
  Au  Au996     1.0  0.8  0.0  0.0  1.0000
  Au  Au997     1.0  0.8  0.02  0.0  1.0000
  Cu  Cu1006    1.0  0.8  0.04  0.0  1.0000
  Au  Au998     1.0  0.8  0.060000000000000005  0.0  1.0000
  Cu  Cu1007    1.0  0.8  0.08  0.0  1.0000
  Cu  Cu1008    1.0  0.8  0.1  0.0  1.0000
  Cu  Cu1009    1.0  0.8  0.12000000000000001  0.0  1.0000
  Au  Au999     1.0  0.8  0.14000000000000004  0.0  1.0000
  Cu  Cu1010    1.0  0.8  0.16  0.0  1.0000
  Au  Au1000    1.0  0.8  0.18000000000000002  0.0  1.0000
  Cu  Cu1011    1.0  0.8  0.2  0.0  1.0000
  Au  Au1001    1.0  0.8  0.22  0.0  1.0000
  Au  Au1002    1.0  0.8  0.24000000000000002  0.0  1.0000
  Au  Au1003    1.0  0.8  0.26  0.0  1.0000
  Au  Au1004    1.0  0.8  0.2800000000000001  0.0  1.0000
  Cu  Cu1012    1.0  0.8  0.30000000000000004  0.0  1.0000
  Au  Au1005    1.0  0.8  0.32  0.0  1.0000
  Au  Au1006    1.0  0.8  0.3400000000000001  0.0  1.0000
  Cu  Cu1013    1.0  0.8  0.36000000000000004  0.0  1.0000
  Au  Au1007    1.0  0.8  0.38  0.0  1.0000
  Cu  Cu1014    1.0  0.8  0.4  0.0  1.0000
  Au  Au1008    1.0  0.8  0.42000000000000004  0.0  1.0000
  Cu  Cu1015    1.0  0.8  0.44  0.0  1.0000
  Au  Au1009    1.0  0.8  0.46  0.0  1.0000
  Au  Au1010    1.0  0.8  0.48000000000000004  0.0  1.0000
  Cu  Cu1016    1.0  0.8  0.5  0.0  1.0000
  Cu  Cu1017    1.0  0.8  0.52  0.0  1.0000
  Au  Au1011    1.0  0.8  0.54  0.0  1.0000
  Cu  Cu1018    1.0  0.8  0.5600000000000002  0.0  1.0000
  Au  Au1012    1.0  0.8  0.5800000000000001  0.0  1.0000
  Cu  Cu1019    1.0  0.8  0.6000000000000001  0.0  1.0000
  Cu  Cu1020    1.0  0.8  0.62  0.0  1.0000
  Au  Au1013    1.0  0.8  0.64  0.0  1.0000
  Cu  Cu1021    1.0  0.8  0.66  0.0  1.0000
  Cu  Cu1022    1.0  0.8  0.6800000000000002  0.0  1.0000
  Au  Au1014    1.0  0.8  0.7000000000000001  0.0  1.0000
  Cu  Cu1023    1.0  0.8  0.7200000000000001  0.0  1.0000
  Cu  Cu1024    1.0  0.8  0.7400000000000001  0.0  1.0000
  Au  Au1015    1.0  0.8  0.76  0.0  1.0000
  Au  Au1016    1.0  0.8  0.78  0.0  1.0000
  Au  Au1017    1.0  0.8  0.8  0.0  1.0000
  Cu  Cu1025    1.0  0.8  0.82  0.0  1.0000
  Au  Au1018    1.0  0.8  0.8400000000000001  0.0  1.0000
  Cu  Cu1026    1.0  0.8  0.8600000000000001  0.0  1.0000
  Au  Au1019    1.0  0.8  0.88  0.0  1.0000
  Cu  Cu1027    1.0  0.8  0.9  0.0  1.0000
  Au  Au1020    1.0  0.8  0.92  0.0  1.0000
  Cu  Cu1028    1.0  0.8  0.9400000000000001  0.0  1.0000
  Au  Au1021    1.0  0.8  0.9600000000000001  0.0  1.0000
  Cu  Cu1029    1.0  0.8  0.9800000000000001  0.0  1.0000
  Cu  Cu1030    1.0  0.82  0.0  0.0  1.0000
  Cu  Cu1031    1.0  0.82  0.02  0.0  1.0000
  Au  Au1022    1.0  0.82  0.04  0.0  1.0000
  Cu  Cu1032    1.0  0.82  0.060000000000000005  0.0  1.0000
  Au  Au1023    1.0  0.82  0.08  0.0  1.0000
  Cu  Cu1033    1.0  0.82  0.1  0.0  1.0000
  Cu  Cu1034    1.0  0.82  0.12000000000000001  0.0  1.0000
  Au  Au1024    1.0  0.82  0.14000000000000004  0.0  1.0000
  Cu  Cu1035    1.0  0.82  0.16  0.0  1.0000
  Au  Au1025    1.0  0.82  0.18000000000000002  0.0  1.0000
  Au  Au1026    1.0  0.82  0.2  0.0  1.0000
  Au  Au1027    1.0  0.82  0.22  0.0  1.0000
  Cu  Cu1036    1.0  0.82  0.24000000000000002  0.0  1.0000
  Au  Au1028    1.0  0.82  0.26  0.0  1.0000
  Cu  Cu1037    1.0  0.82  0.2800000000000001  0.0  1.0000
  Cu  Cu1038    1.0  0.82  0.30000000000000004  0.0  1.0000
  Au  Au1029    1.0  0.82  0.32  0.0  1.0000
  Cu  Cu1039    1.0  0.82  0.3400000000000001  0.0  1.0000
  Cu  Cu1040    1.0  0.82  0.36000000000000004  0.0  1.0000
  Au  Au1030    1.0  0.82  0.38  0.0  1.0000
  Cu  Cu1041    1.0  0.82  0.4  0.0  1.0000
  Cu  Cu1042    1.0  0.82  0.42000000000000004  0.0  1.0000
  Au  Au1031    1.0  0.82  0.44  0.0  1.0000
  Cu  Cu1043    1.0  0.82  0.46  0.0  1.0000
  Au  Au1032    1.0  0.82  0.48000000000000004  0.0  1.0000
  Au  Au1033    1.0  0.82  0.5  0.0  1.0000
  Cu  Cu1044    1.0  0.82  0.52  0.0  1.0000
  Cu  Cu1045    1.0  0.82  0.54  0.0  1.0000
  Au  Au1034    1.0  0.82  0.5600000000000002  0.0  1.0000
  Cu  Cu1046    1.0  0.82  0.5800000000000001  0.0  1.0000
  Cu  Cu1047    1.0  0.82  0.6000000000000001  0.0  1.0000
  Au  Au1035    1.0  0.82  0.62  0.0  1.0000
  Cu  Cu1048    1.0  0.82  0.64  0.0  1.0000
  Au  Au1036    1.0  0.82  0.66  0.0  1.0000
  Au  Au1037    1.0  0.82  0.6800000000000002  0.0  1.0000
  Cu  Cu1049    1.0  0.82  0.7000000000000001  0.0  1.0000
  Au  Au1038    1.0  0.82  0.7200000000000001  0.0  1.0000
  Cu  Cu1050    1.0  0.82  0.7400000000000001  0.0  1.0000
  Au  Au1039    1.0  0.82  0.76  0.0  1.0000
  Cu  Cu1051    1.0  0.82  0.78  0.0  1.0000
  Cu  Cu1052    1.0  0.82  0.8  0.0  1.0000
  Au  Au1040    1.0  0.82  0.82  0.0  1.0000
  Cu  Cu1053    1.0  0.82  0.8400000000000001  0.0  1.0000
  Au  Au1041    1.0  0.82  0.8600000000000001  0.0  1.0000
  Cu  Cu1054    1.0  0.82  0.88  0.0  1.0000
  Au  Au1042    1.0  0.82  0.9  0.0  1.0000
  Cu  Cu1055    1.0  0.82  0.92  0.0  1.0000
  Au  Au1043    1.0  0.82  0.9400000000000001  0.0  1.0000
  Cu  Cu1056    1.0  0.82  0.9600000000000001  0.0  1.0000
  Au  Au1044    1.0  0.82  0.9800000000000001  0.0  1.0000
  Au  Au1045    1.0  0.8400000000000001  0.0  0.0  1.0000
  Au  Au1046    1.0  0.8400000000000001  0.02  0.0  1.0000
  Cu  Cu1057    1.0  0.8400000000000001  0.04  0.0  1.0000
  Au  Au1047    1.0  0.8400000000000001  0.060000000000000005  0.0  1.0000
  Cu  Cu1058    1.0  0.8400000000000001  0.08  0.0  1.0000
  Au  Au1048    1.0  0.8400000000000001  0.1  0.0  1.0000
  Au  Au1049    1.0  0.8400000000000001  0.12000000000000001  0.0  1.0000
  Cu  Cu1059    1.0  0.8400000000000001  0.14000000000000004  0.0  1.0000
  Au  Au1050    1.0  0.8400000000000001  0.16  0.0  1.0000
  Cu  Cu1060    1.0  0.8400000000000001  0.18000000000000002  0.0  1.0000
  Au  Au1051    1.0  0.8400000000000001  0.2  0.0  1.0000
  Cu  Cu1061    1.0  0.8400000000000001  0.22  0.0  1.0000
  Au  Au1052    1.0  0.8400000000000001  0.24000000000000002  0.0  1.0000
  Cu  Cu1062    1.0  0.8400000000000001  0.26  0.0  1.0000
  Au  Au1053    1.0  0.8400000000000001  0.2800000000000001  0.0  1.0000
  Au  Au1054    1.0  0.8400000000000001  0.30000000000000004  0.0  1.0000
  Au  Au1055    1.0  0.8400000000000001  0.32  0.0  1.0000
  Cu  Cu1063    1.0  0.8400000000000001  0.3400000000000001  0.0  1.0000
  Au  Au1056    1.0  0.8400000000000001  0.36000000000000004  0.0  1.0000
  Au  Au1057    1.0  0.8400000000000001  0.38  0.0  1.0000
  Au  Au1058    1.0  0.8400000000000001  0.4  0.0  1.0000
  Au  Au1059    1.0  0.8400000000000001  0.42000000000000004  0.0  1.0000
  Cu  Cu1064    1.0  0.8400000000000001  0.44  0.0  1.0000
  Au  Au1060    1.0  0.8400000000000001  0.46  0.0  1.0000
  Cu  Cu1065    1.0  0.8400000000000001  0.48000000000000004  0.0  1.0000
  Au  Au1061    1.0  0.8400000000000001  0.5  0.0  1.0000
  Au  Au1062    1.0  0.8400000000000001  0.52  0.0  1.0000
  Au  Au1063    1.0  0.8400000000000001  0.54  0.0  1.0000
  Cu  Cu1066    1.0  0.8400000000000001  0.5600000000000002  0.0  1.0000
  Au  Au1064    1.0  0.8400000000000001  0.5800000000000001  0.0  1.0000
  Cu  Cu1067    1.0  0.8400000000000001  0.6000000000000001  0.0  1.0000
  Cu  Cu1068    1.0  0.8400000000000001  0.62  0.0  1.0000
  Au  Au1065    1.0  0.8400000000000001  0.64  0.0  1.0000
  Au  Au1066    1.0  0.8400000000000001  0.66  0.0  1.0000
  Cu  Cu1069    1.0  0.8400000000000001  0.6800000000000002  0.0  1.0000
  Au  Au1067    1.0  0.8400000000000001  0.7000000000000001  0.0  1.0000
  Cu  Cu1070    1.0  0.8400000000000001  0.7200000000000001  0.0  1.0000
  Cu  Cu1071    1.0  0.8400000000000001  0.7400000000000001  0.0  1.0000
  Cu  Cu1072    1.0  0.8400000000000001  0.76  0.0  1.0000
  Au  Au1068    1.0  0.8400000000000001  0.78  0.0  1.0000
  Cu  Cu1073    1.0  0.8400000000000001  0.8  0.0  1.0000
  Au  Au1069    1.0  0.8400000000000001  0.82  0.0  1.0000
  Cu  Cu1074    1.0  0.8400000000000001  0.8400000000000001  0.0  1.0000
  Au  Au1070    1.0  0.8400000000000001  0.8600000000000001  0.0  1.0000
  Au  Au1071    1.0  0.8400000000000001  0.88  0.0  1.0000
  Cu  Cu1075    1.0  0.8400000000000001  0.9  0.0  1.0000
  Au  Au1072    1.0  0.8400000000000001  0.92  0.0  1.0000
  Cu  Cu1076    1.0  0.8400000000000001  0.9400000000000001  0.0  1.0000
  Au  Au1073    1.0  0.8400000000000001  0.9600000000000001  0.0  1.0000
  Cu  Cu1077    1.0  0.8400000000000001  0.9800000000000001  0.0  1.0000
  Au  Au1074    1.0  0.8600000000000001  0.0  0.0  1.0000
  Cu  Cu1078    1.0  0.8600000000000001  0.02  0.0  1.0000
  Au  Au1075    1.0  0.8600000000000001  0.04  0.0  1.0000
  Cu  Cu1079    1.0  0.8600000000000001  0.060000000000000005  0.0  1.0000
  Au  Au1076    1.0  0.8600000000000001  0.08  0.0  1.0000
  Cu  Cu1080    1.0  0.8600000000000001  0.1  0.0  1.0000
  Cu  Cu1081    1.0  0.8600000000000001  0.12000000000000001  0.0  1.0000
  Cu  Cu1082    1.0  0.8600000000000001  0.14000000000000004  0.0  1.0000
  Cu  Cu1083    1.0  0.8600000000000001  0.16  0.0  1.0000
  Au  Au1077    1.0  0.8600000000000001  0.18000000000000002  0.0  1.0000
  Cu  Cu1084    1.0  0.8600000000000001  0.2  0.0  1.0000
  Au  Au1078    1.0  0.8600000000000001  0.22  0.0  1.0000
  Cu  Cu1085    1.0  0.8600000000000001  0.24000000000000002  0.0  1.0000
  Au  Au1079    1.0  0.8600000000000001  0.26  0.0  1.0000
  Cu  Cu1086    1.0  0.8600000000000001  0.2800000000000001  0.0  1.0000
  Au  Au1080    1.0  0.8600000000000001  0.30000000000000004  0.0  1.0000
  Cu  Cu1087    1.0  0.8600000000000001  0.32  0.0  1.0000
  Au  Au1081    1.0  0.8600000000000001  0.3400000000000001  0.0  1.0000
  Cu  Cu1088    1.0  0.8600000000000001  0.36000000000000004  0.0  1.0000
  Cu  Cu1089    1.0  0.8600000000000001  0.38  0.0  1.0000
  Au  Au1082    1.0  0.8600000000000001  0.4  0.0  1.0000
  Cu  Cu1090    1.0  0.8600000000000001  0.42000000000000004  0.0  1.0000
  Au  Au1083    1.0  0.8600000000000001  0.44  0.0  1.0000
  Cu  Cu1091    1.0  0.8600000000000001  0.46  0.0  1.0000
  Au  Au1084    1.0  0.8600000000000001  0.48000000000000004  0.0  1.0000
  Cu  Cu1092    1.0  0.8600000000000001  0.5  0.0  1.0000
  Au  Au1085    1.0  0.8600000000000001  0.52  0.0  1.0000
  Au  Au1086    1.0  0.8600000000000001  0.54  0.0  1.0000
  Au  Au1087    1.0  0.8600000000000001  0.5600000000000002  0.0  1.0000
  Cu  Cu1093    1.0  0.8600000000000001  0.5800000000000001  0.0  1.0000
  Au  Au1088    1.0  0.8600000000000001  0.6000000000000001  0.0  1.0000
  Cu  Cu1094    1.0  0.8600000000000001  0.62  0.0  1.0000
  Au  Au1089    1.0  0.8600000000000001  0.64  0.0  1.0000
  Cu  Cu1095    1.0  0.8600000000000001  0.66  0.0  1.0000
  Au  Au1090    1.0  0.8600000000000001  0.6800000000000002  0.0  1.0000
  Cu  Cu1096    1.0  0.8600000000000001  0.7000000000000001  0.0  1.0000
  Au  Au1091    1.0  0.8600000000000001  0.7200000000000001  0.0  1.0000
  Au  Au1092    1.0  0.8600000000000001  0.7400000000000001  0.0  1.0000
  Au  Au1093    1.0  0.8600000000000001  0.76  0.0  1.0000
  Au  Au1094    1.0  0.8600000000000001  0.78  0.0  1.0000
  Au  Au1095    1.0  0.8600000000000001  0.8  0.0  1.0000
  Cu  Cu1097    1.0  0.8600000000000001  0.82  0.0  1.0000
  Au  Au1096    1.0  0.8600000000000001  0.8400000000000001  0.0  1.0000
  Cu  Cu1098    1.0  0.8600000000000001  0.8600000000000001  0.0  1.0000
  Au  Au1097    1.0  0.8600000000000001  0.88  0.0  1.0000
  Cu  Cu1099    1.0  0.8600000000000001  0.9  0.0  1.0000
  Cu  Cu1100    1.0  0.8600000000000001  0.92  0.0  1.0000
  Au  Au1098    1.0  0.8600000000000001  0.9400000000000001  0.0  1.0000
  Cu  Cu1101    1.0  0.8600000000000001  0.9600000000000001  0.0  1.0000
  Cu  Cu1102    1.0  0.8600000000000001  0.9800000000000001  0.0  1.0000
  Au  Au1099    1.0  0.88  0.0  0.0  1.0000
  Au  Au1100    1.0  0.88  0.02  0.0  1.0000
  Cu  Cu1103    1.0  0.88  0.04  0.0  1.0000
  Au  Au1101    1.0  0.88  0.060000000000000005  0.0  1.0000
  Cu  Cu1104    1.0  0.88  0.08  0.0  1.0000
  Au  Au1102    1.0  0.88  0.1  0.0  1.0000
  Au  Au1103    1.0  0.88  0.12000000000000001  0.0  1.0000
  Cu  Cu1105    1.0  0.88  0.14000000000000004  0.0  1.0000
  Au  Au1104    1.0  0.88  0.16  0.0  1.0000
  Cu  Cu1106    1.0  0.88  0.18000000000000002  0.0  1.0000
  Au  Au1105    1.0  0.88  0.2  0.0  1.0000
  Cu  Cu1107    1.0  0.88  0.22  0.0  1.0000
  Au  Au1106    1.0  0.88  0.24000000000000002  0.0  1.0000
  Cu  Cu1108    1.0  0.88  0.26  0.0  1.0000
  Au  Au1107    1.0  0.88  0.2800000000000001  0.0  1.0000
  Cu  Cu1109    1.0  0.88  0.30000000000000004  0.0  1.0000
  Au  Au1108    1.0  0.88  0.32  0.0  1.0000
  Cu  Cu1110    1.0  0.88  0.3400000000000001  0.0  1.0000
  Au  Au1109    1.0  0.88  0.36000000000000004  0.0  1.0000
  Cu  Cu1111    1.0  0.88  0.38  0.0  1.0000
  Cu  Cu1112    1.0  0.88  0.4  0.0  1.0000
  Au  Au1110    1.0  0.88  0.42000000000000004  0.0  1.0000
  Cu  Cu1113    1.0  0.88  0.44  0.0  1.0000
  Au  Au1111    1.0  0.88  0.46  0.0  1.0000
  Cu  Cu1114    1.0  0.88  0.48000000000000004  0.0  1.0000
  Au  Au1112    1.0  0.88  0.5  0.0  1.0000
  Cu  Cu1115    1.0  0.88  0.52  0.0  1.0000
  Cu  Cu1116    1.0  0.88  0.54  0.0  1.0000
  Au  Au1113    1.0  0.88  0.5600000000000002  0.0  1.0000
  Au  Au1114    1.0  0.88  0.5800000000000001  0.0  1.0000
  Cu  Cu1117    1.0  0.88  0.6000000000000001  0.0  1.0000
  Au  Au1115    1.0  0.88  0.62  0.0  1.0000
  Cu  Cu1118    1.0  0.88  0.64  0.0  1.0000
  Au  Au1116    1.0  0.88  0.66  0.0  1.0000
  Cu  Cu1119    1.0  0.88  0.6800000000000002  0.0  1.0000
  Au  Au1117    1.0  0.88  0.7000000000000001  0.0  1.0000
  Cu  Cu1120    1.0  0.88  0.7200000000000001  0.0  1.0000
  Cu  Cu1121    1.0  0.88  0.7400000000000001  0.0  1.0000
  Au  Au1118    1.0  0.88  0.76  0.0  1.0000
  Au  Au1119    1.0  0.88  0.78  0.0  1.0000
  Cu  Cu1122    1.0  0.88  0.8  0.0  1.0000
  Au  Au1120    1.0  0.88  0.82  0.0  1.0000
  Cu  Cu1123    1.0  0.88  0.8400000000000001  0.0  1.0000
  Au  Au1121    1.0  0.88  0.8600000000000001  0.0  1.0000
  Cu  Cu1124    1.0  0.88  0.88  0.0  1.0000
  Au  Au1122    1.0  0.88  0.9  0.0  1.0000
  Cu  Cu1125    1.0  0.88  0.92  0.0  1.0000
  Au  Au1123    1.0  0.88  0.9400000000000001  0.0  1.0000
  Cu  Cu1126    1.0  0.88  0.9600000000000001  0.0  1.0000
  Au  Au1124    1.0  0.88  0.9800000000000001  0.0  1.0000
  Cu  Cu1127    1.0  0.9  0.0  0.0  1.0000
  Au  Au1125    1.0  0.9  0.02  0.0  1.0000
  Au  Au1126    1.0  0.9  0.04  0.0  1.0000
  Cu  Cu1128    1.0  0.9  0.060000000000000005  0.0  1.0000
  Au  Au1127    1.0  0.9  0.08  0.0  1.0000
  Cu  Cu1129    1.0  0.9  0.1  0.0  1.0000
  Au  Au1128    1.0  0.9  0.12000000000000001  0.0  1.0000
  Cu  Cu1130    1.0  0.9  0.14000000000000004  0.0  1.0000
  Cu  Cu1131    1.0  0.9  0.16  0.0  1.0000
  Au  Au1129    1.0  0.9  0.18000000000000002  0.0  1.0000
  Au  Au1130    1.0  0.9  0.2  0.0  1.0000
  Cu  Cu1132    1.0  0.9  0.22  0.0  1.0000
  Au  Au1131    1.0  0.9  0.24000000000000002  0.0  1.0000
  Au  Au1132    1.0  0.9  0.26  0.0  1.0000
  Cu  Cu1133    1.0  0.9  0.2800000000000001  0.0  1.0000
  Au  Au1133    1.0  0.9  0.30000000000000004  0.0  1.0000
  Cu  Cu1134    1.0  0.9  0.32  0.0  1.0000
  Au  Au1134    1.0  0.9  0.3400000000000001  0.0  1.0000
  Cu  Cu1135    1.0  0.9  0.36000000000000004  0.0  1.0000
  Au  Au1135    1.0  0.9  0.38  0.0  1.0000
  Au  Au1136    1.0  0.9  0.4  0.0  1.0000
  Cu  Cu1136    1.0  0.9  0.42000000000000004  0.0  1.0000
  Au  Au1137    1.0  0.9  0.44  0.0  1.0000
  Cu  Cu1137    1.0  0.9  0.46  0.0  1.0000
  Au  Au1138    1.0  0.9  0.48000000000000004  0.0  1.0000
  Cu  Cu1138    1.0  0.9  0.5  0.0  1.0000
  Cu  Cu1139    1.0  0.9  0.52  0.0  1.0000
  Au  Au1139    1.0  0.9  0.54  0.0  1.0000
  Cu  Cu1140    1.0  0.9  0.5600000000000002  0.0  1.0000
  Cu  Cu1141    1.0  0.9  0.5800000000000001  0.0  1.0000
  Cu  Cu1142    1.0  0.9  0.6000000000000001  0.0  1.0000
  Cu  Cu1143    1.0  0.9  0.62  0.0  1.0000
  Au  Au1140    1.0  0.9  0.64  0.0  1.0000
  Cu  Cu1144    1.0  0.9  0.66  0.0  1.0000
  Au  Au1141    1.0  0.9  0.6800000000000002  0.0  1.0000
  Au  Au1142    1.0  0.9  0.7000000000000001  0.0  1.0000
  Cu  Cu1145    1.0  0.9  0.7200000000000001  0.0  1.0000
  Au  Au1143    1.0  0.9  0.7400000000000001  0.0  1.0000
  Au  Au1144    1.0  0.9  0.76  0.0  1.0000
  Cu  Cu1146    1.0  0.9  0.78  0.0  1.0000
  Au  Au1145    1.0  0.9  0.8  0.0  1.0000
  Cu  Cu1147    1.0  0.9  0.82  0.0  1.0000
  Au  Au1146    1.0  0.9  0.8400000000000001  0.0  1.0000
  Cu  Cu1148    1.0  0.9  0.8600000000000001  0.0  1.0000
  Au  Au1147    1.0  0.9  0.88  0.0  1.0000
  Cu  Cu1149    1.0  0.9  0.9  0.0  1.0000
  Cu  Cu1150    1.0  0.9  0.92  0.0  1.0000
  Au  Au1148    1.0  0.9  0.9400000000000001  0.0  1.0000
  Au  Au1149    1.0  0.9  0.9600000000000001  0.0  1.0000
  Au  Au1150    1.0  0.9  0.9800000000000001  0.0  1.0000
  Au  Au1151    1.0  0.92  0.0  0.0  1.0000
  Cu  Cu1151    1.0  0.92  0.02  0.0  1.0000
  Au  Au1152    1.0  0.92  0.04  0.0  1.0000
  Au  Au1153    1.0  0.92  0.060000000000000005  0.0  1.0000
  Au  Au1154    1.0  0.92  0.08  0.0  1.0000
  Cu  Cu1152    1.0  0.92  0.1  0.0  1.0000
  Au  Au1155    1.0  0.92  0.12000000000000001  0.0  1.0000
  Au  Au1156    1.0  0.92  0.14000000000000004  0.0  1.0000
  Au  Au1157    1.0  0.92  0.16  0.0  1.0000
  Cu  Cu1153    1.0  0.92  0.18000000000000002  0.0  1.0000
  Cu  Cu1154    1.0  0.92  0.2  0.0  1.0000
  Cu  Cu1155    1.0  0.92  0.22  0.0  1.0000
  Au  Au1158    1.0  0.92  0.24000000000000002  0.0  1.0000
  Cu  Cu1156    1.0  0.92  0.26  0.0  1.0000
  Au  Au1159    1.0  0.92  0.2800000000000001  0.0  1.0000
  Cu  Cu1157    1.0  0.92  0.30000000000000004  0.0  1.0000
  Au  Au1160    1.0  0.92  0.32  0.0  1.0000
  Cu  Cu1158    1.0  0.92  0.3400000000000001  0.0  1.0000
  Au  Au1161    1.0  0.92  0.36000000000000004  0.0  1.0000
  Cu  Cu1159    1.0  0.92  0.38  0.0  1.0000
  Cu  Cu1160    1.0  0.92  0.4  0.0  1.0000
  Au  Au1162    1.0  0.92  0.42000000000000004  0.0  1.0000
  Cu  Cu1161    1.0  0.92  0.44  0.0  1.0000
  Au  Au1163    1.0  0.92  0.46  0.0  1.0000
  Cu  Cu1162    1.0  0.92  0.48000000000000004  0.0  1.0000
  Au  Au1164    1.0  0.92  0.5  0.0  1.0000
  Au  Au1165    1.0  0.92  0.52  0.0  1.0000
  Cu  Cu1163    1.0  0.92  0.54  0.0  1.0000
  Au  Au1166    1.0  0.92  0.5600000000000002  0.0  1.0000
  Cu  Cu1164    1.0  0.92  0.5800000000000001  0.0  1.0000
  Au  Au1167    1.0  0.92  0.6000000000000001  0.0  1.0000
  Cu  Cu1165    1.0  0.92  0.62  0.0  1.0000
  Au  Au1168    1.0  0.92  0.64  0.0  1.0000
  Cu  Cu1166    1.0  0.92  0.66  0.0  1.0000
  Au  Au1169    1.0  0.92  0.6800000000000002  0.0  1.0000
  Cu  Cu1167    1.0  0.92  0.7000000000000001  0.0  1.0000
  Au  Au1170    1.0  0.92  0.7200000000000001  0.0  1.0000
  Cu  Cu1168    1.0  0.92  0.7400000000000001  0.0  1.0000
  Au  Au1171    1.0  0.92  0.76  0.0  1.0000
  Au  Au1172    1.0  0.92  0.78  0.0  1.0000
  Au  Au1173    1.0  0.92  0.8  0.0  1.0000
  Au  Au1174    1.0  0.92  0.82  0.0  1.0000
  Cu  Cu1169    1.0  0.92  0.8400000000000001  0.0  1.0000
  Au  Au1175    1.0  0.92  0.8600000000000001  0.0  1.0000
  Cu  Cu1170    1.0  0.92  0.88  0.0  1.0000
  Au  Au1176    1.0  0.92  0.9  0.0  1.0000
  Au  Au1177    1.0  0.92  0.92  0.0  1.0000
  Au  Au1178    1.0  0.92  0.9400000000000001  0.0  1.0000
  Au  Au1179    1.0  0.92  0.9600000000000001  0.0  1.0000
  Cu  Cu1171    1.0  0.92  0.9800000000000001  0.0  1.0000
  Cu  Cu1172    1.0  0.9400000000000001  0.0  0.0  1.0000
  Au  Au1180    1.0  0.9400000000000001  0.02  0.0  1.0000
  Cu  Cu1173    1.0  0.9400000000000001  0.04  0.0  1.0000
  Au  Au1181    1.0  0.9400000000000001  0.060000000000000005  0.0  1.0000
  Cu  Cu1174    1.0  0.9400000000000001  0.08  0.0  1.0000
  Au  Au1182    1.0  0.9400000000000001  0.1  0.0  1.0000
  Au  Au1183    1.0  0.9400000000000001  0.12000000000000001  0.0  1.0000
  Cu  Cu1175    1.0  0.9400000000000001  0.14000000000000004  0.0  1.0000
  Cu  Cu1176    1.0  0.9400000000000001  0.16  0.0  1.0000
  Cu  Cu1177    1.0  0.9400000000000001  0.18000000000000002  0.0  1.0000
  Au  Au1184    1.0  0.9400000000000001  0.2  0.0  1.0000
  Cu  Cu1178    1.0  0.9400000000000001  0.22  0.0  1.0000
  Cu  Cu1179    1.0  0.9400000000000001  0.24000000000000002  0.0  1.0000
  Cu  Cu1180    1.0  0.9400000000000001  0.26  0.0  1.0000
  Cu  Cu1181    1.0  0.9400000000000001  0.2800000000000001  0.0  1.0000
  Au  Au1185    1.0  0.9400000000000001  0.30000000000000004  0.0  1.0000
  Cu  Cu1182    1.0  0.9400000000000001  0.32  0.0  1.0000
  Au  Au1186    1.0  0.9400000000000001  0.3400000000000001  0.0  1.0000
  Cu  Cu1183    1.0  0.9400000000000001  0.36000000000000004  0.0  1.0000
  Au  Au1187    1.0  0.9400000000000001  0.38  0.0  1.0000
  Au  Au1188    1.0  0.9400000000000001  0.4  0.0  1.0000
  Cu  Cu1184    1.0  0.9400000000000001  0.42000000000000004  0.0  1.0000
  Cu  Cu1185    1.0  0.9400000000000001  0.44  0.0  1.0000
  Au  Au1189    1.0  0.9400000000000001  0.46  0.0  1.0000
  Cu  Cu1186    1.0  0.9400000000000001  0.48000000000000004  0.0  1.0000
  Cu  Cu1187    1.0  0.9400000000000001  0.5  0.0  1.0000
  Cu  Cu1188    1.0  0.9400000000000001  0.52  0.0  1.0000
  Au  Au1190    1.0  0.9400000000000001  0.54  0.0  1.0000
  Cu  Cu1189    1.0  0.9400000000000001  0.5600000000000002  0.0  1.0000
  Au  Au1191    1.0  0.9400000000000001  0.5800000000000001  0.0  1.0000
  Cu  Cu1190    1.0  0.9400000000000001  0.6000000000000001  0.0  1.0000
  Au  Au1192    1.0  0.9400000000000001  0.62  0.0  1.0000
  Cu  Cu1191    1.0  0.9400000000000001  0.64  0.0  1.0000
  Au  Au1193    1.0  0.9400000000000001  0.66  0.0  1.0000
  Cu  Cu1192    1.0  0.9400000000000001  0.6800000000000002  0.0  1.0000
  Cu  Cu1193    1.0  0.9400000000000001  0.7000000000000001  0.0  1.0000
  Au  Au1194    1.0  0.9400000000000001  0.7200000000000001  0.0  1.0000
  Cu  Cu1194    1.0  0.9400000000000001  0.7400000000000001  0.0  1.0000
  Cu  Cu1195    1.0  0.9400000000000001  0.76  0.0  1.0000
  Au  Au1195    1.0  0.9400000000000001  0.78  0.0  1.0000
  Cu  Cu1196    1.0  0.9400000000000001  0.8  0.0  1.0000
  Cu  Cu1197    1.0  0.9400000000000001  0.82  0.0  1.0000
  Au  Au1196    1.0  0.9400000000000001  0.8400000000000001  0.0  1.0000
  Cu  Cu1198    1.0  0.9400000000000001  0.8600000000000001  0.0  1.0000
  Au  Au1197    1.0  0.9400000000000001  0.88  0.0  1.0000
  Cu  Cu1199    1.0  0.9400000000000001  0.9  0.0  1.0000
  Au  Au1198    1.0  0.9400000000000001  0.92  0.0  1.0000
  Cu  Cu1200    1.0  0.9400000000000001  0.9400000000000001  0.0  1.0000
  Au  Au1199    1.0  0.9400000000000001  0.9600000000000001  0.0  1.0000
  Cu  Cu1201    1.0  0.9400000000000001  0.9800000000000001  0.0  1.0000
  Cu  Cu1202    1.0  0.9600000000000001  0.0  0.0  1.0000
  Au  Au1200    1.0  0.9600000000000001  0.02  0.0  1.0000
  Cu  Cu1203    1.0  0.9600000000000001  0.04  0.0  1.0000
  Cu  Cu1204    1.0  0.9600000000000001  0.060000000000000005  0.0  1.0000
  Au  Au1201    1.0  0.9600000000000001  0.08  0.0  1.0000
  Au  Au1202    1.0  0.9600000000000001  0.1  0.0  1.0000
  Cu  Cu1205    1.0  0.9600000000000001  0.12000000000000001  0.0  1.0000
  Au  Au1203    1.0  0.9600000000000001  0.14000000000000004  0.0  1.0000
  Cu  Cu1206    1.0  0.9600000000000001  0.16  0.0  1.0000
  Au  Au1204    1.0  0.9600000000000001  0.18000000000000002  0.0  1.0000
  Cu  Cu1207    1.0  0.9600000000000001  0.2  0.0  1.0000
  Au  Au1205    1.0  0.9600000000000001  0.22  0.0  1.0000
  Cu  Cu1208    1.0  0.9600000000000001  0.24000000000000002  0.0  1.0000
  Au  Au1206    1.0  0.9600000000000001  0.26  0.0  1.0000
  Au  Au1207    1.0  0.9600000000000001  0.2800000000000001  0.0  1.0000
  Au  Au1208    1.0  0.9600000000000001  0.30000000000000004  0.0  1.0000
  Cu  Cu1209    1.0  0.9600000000000001  0.32  0.0  1.0000
  Cu  Cu1210    1.0  0.9600000000000001  0.3400000000000001  0.0  1.0000
  Au  Au1209    1.0  0.9600000000000001  0.36000000000000004  0.0  1.0000
  Au  Au1210    1.0  0.9600000000000001  0.38  0.0  1.0000
  Cu  Cu1211    1.0  0.9600000000000001  0.4  0.0  1.0000
  Au  Au1211    1.0  0.9600000000000001  0.42000000000000004  0.0  1.0000
  Au  Au1212    1.0  0.9600000000000001  0.44  0.0  1.0000
  Cu  Cu1212    1.0  0.9600000000000001  0.46  0.0  1.0000
  Au  Au1213    1.0  0.9600000000000001  0.48000000000000004  0.0  1.0000
  Au  Au1214    1.0  0.9600000000000001  0.5  0.0  1.0000
  Cu  Cu1213    1.0  0.9600000000000001  0.52  0.0  1.0000
  Cu  Cu1214    1.0  0.9600000000000001  0.54  0.0  1.0000
  Au  Au1215    1.0  0.9600000000000001  0.5600000000000002  0.0  1.0000
  Cu  Cu1215    1.0  0.9600000000000001  0.5800000000000001  0.0  1.0000
  Au  Au1216    1.0  0.9600000000000001  0.6000000000000001  0.0  1.0000
  Cu  Cu1216    1.0  0.9600000000000001  0.62  0.0  1.0000
  Au  Au1217    1.0  0.9600000000000001  0.64  0.0  1.0000
  Au  Au1218    1.0  0.9600000000000001  0.66  0.0  1.0000
  Cu  Cu1217    1.0  0.9600000000000001  0.6800000000000002  0.0  1.0000
  Cu  Cu1218    1.0  0.9600000000000001  0.7000000000000001  0.0  1.0000
  Cu  Cu1219    1.0  0.9600000000000001  0.7200000000000001  0.0  1.0000
  Cu  Cu1220    1.0  0.9600000000000001  0.7400000000000001  0.0  1.0000
  Au  Au1219    1.0  0.9600000000000001  0.76  0.0  1.0000
  Au  Au1220    1.0  0.9600000000000001  0.78  0.0  1.0000
  Cu  Cu1221    1.0  0.9600000000000001  0.8  0.0  1.0000
  Au  Au1221    1.0  0.9600000000000001  0.82  0.0  1.0000
  Cu  Cu1222    1.0  0.9600000000000001  0.8400000000000001  0.0  1.0000
  Au  Au1222    1.0  0.9600000000000001  0.8600000000000001  0.0  1.0000
  Cu  Cu1223    1.0  0.9600000000000001  0.88  0.0  1.0000
  Au  Au1223    1.0  0.9600000000000001  0.9  0.0  1.0000
  Cu  Cu1224    1.0  0.9600000000000001  0.92  0.0  1.0000
  Au  Au1224    1.0  0.9600000000000001  0.9400000000000001  0.0  1.0000
  Cu  Cu1225    1.0  0.9600000000000001  0.9600000000000001  0.0  1.0000
  Au  Au1225    1.0  0.9600000000000001  0.9800000000000001  0.0  1.0000
  Au  Au1226    1.0  0.9800000000000001  0.0  0.0  1.0000
  Cu  Cu1226    1.0  0.9800000000000001  0.02  0.0  1.0000
  Au  Au1227    1.0  0.9800000000000001  0.04  0.0  1.0000
  Cu  Cu1227    1.0  0.9800000000000001  0.060000000000000005  0.0  1.0000
  Cu  Cu1228    1.0  0.9800000000000001  0.08  0.0  1.0000
  Cu  Cu1229    1.0  0.9800000000000001  0.1  0.0  1.0000
  Cu  Cu1230    1.0  0.9800000000000001  0.12000000000000001  0.0  1.0000
  Cu  Cu1231    1.0  0.9800000000000001  0.14000000000000004  0.0  1.0000
  Au  Au1228    1.0  0.9800000000000001  0.16  0.0  1.0000
  Cu  Cu1232    1.0  0.9800000000000001  0.18000000000000002  0.0  1.0000
  Au  Au1229    1.0  0.9800000000000001  0.2  0.0  1.0000
  Au  Au1230    1.0  0.9800000000000001  0.22  0.0  1.0000
  Cu  Cu1233    1.0  0.9800000000000001  0.24000000000000002  0.0  1.0000
  Cu  Cu1234    1.0  0.9800000000000001  0.26  0.0  1.0000
  Au  Au1231    1.0  0.9800000000000001  0.2800000000000001  0.0  1.0000
  Cu  Cu1235    1.0  0.9800000000000001  0.30000000000000004  0.0  1.0000
  Au  Au1232    1.0  0.9800000000000001  0.32  0.0  1.0000
  Cu  Cu1236    1.0  0.9800000000000001  0.3400000000000001  0.0  1.0000
  Cu  Cu1237    1.0  0.9800000000000001  0.36000000000000004  0.0  1.0000
  Au  Au1233    1.0  0.9800000000000001  0.38  0.0  1.0000
  Au  Au1234    1.0  0.9800000000000001  0.4  0.0  1.0000
  Cu  Cu1238    1.0  0.9800000000000001  0.42000000000000004  0.0  1.0000
  Cu  Cu1239    1.0  0.9800000000000001  0.44  0.0  1.0000
  Au  Au1235    1.0  0.9800000000000001  0.46  0.0  1.0000
  Cu  Cu1240    1.0  0.9800000000000001  0.48000000000000004  0.0  1.0000
  Au  Au1236    1.0  0.9800000000000001  0.5  0.0  1.0000
  Au  Au1237    1.0  0.9800000000000001  0.52  0.0  1.0000
  Au  Au1238    1.0  0.9800000000000001  0.54  0.0  1.0000
  Cu  Cu1241    1.0  0.9800000000000001  0.5600000000000002  0.0  1.0000
  Au  Au1239    1.0  0.9800000000000001  0.5800000000000001  0.0  1.0000
  Cu  Cu1242    1.0  0.9800000000000001  0.6000000000000001  0.0  1.0000
  Au  Au1240    1.0  0.9800000000000001  0.62  0.0  1.0000
  Cu  Cu1243    1.0  0.9800000000000001  0.64  0.0  1.0000
  Au  Au1241    1.0  0.9800000000000001  0.66  0.0  1.0000
  Cu  Cu1244    1.0  0.9800000000000001  0.6800000000000002  0.0  1.0000
  Au  Au1242    1.0  0.9800000000000001  0.7000000000000001  0.0  1.0000
  Au  Au1243    1.0  0.9800000000000001  0.7200000000000001  0.0  1.0000
  Cu  Cu1245    1.0  0.9800000000000001  0.7400000000000001  0.0  1.0000
  Au  Au1244    1.0  0.9800000000000001  0.76  0.0  1.0000
  Cu  Cu1246    1.0  0.9800000000000001  0.78  0.0  1.0000
  Au  Au1245    1.0  0.9800000000000001  0.8  0.0  1.0000
  Cu  Cu1247    1.0  0.9800000000000001  0.82  0.0  1.0000
  Au  Au1246    1.0  0.9800000000000001  0.8400000000000001  0.0  1.0000
  Cu  Cu1248    1.0  0.9800000000000001  0.8600000000000001  0.0  1.0000
  Au  Au1247    1.0  0.9800000000000001  0.88  0.0  1.0000
  Cu  Cu1249    1.0  0.9800000000000001  0.9  0.0  1.0000
  Au  Au1248    1.0  0.9800000000000001  0.92  0.0  1.0000
  Cu  Cu1250    1.0  0.9800000000000001  0.9400000000000001  0.0  1.0000
  Au  Au1249    1.0  0.9800000000000001  0.9600000000000001  0.0  1.0000
  Au  Au1250    1.0  0.9800000000000001  0.9800000000000001  0.0  1.0000
